
     RDKit          3D

 37 41  0  0  0  0  0  0  0  0999 V2000
    8.0106    3.0008    2.2911 C   0  0  0  0  0  0  0  0  0  0  0  0
    6.9226    3.1488    1.2287 C   0  0  0  0  0  0  0  0  0  0  0  0
    6.5145    1.8694    0.6427 N   0  0  0  0  0  0  0  0  0  0  0  0
    5.9007    1.0103    1.6739 C   0  0  0  0  0  0  0  0  0  0  0  0
    6.8084   -0.1506    2.1136 C   0  0  0  0  0  0  0  0  0  0  0  0
    7.2884   -0.9610    0.9781 N   0  0  0  0  0  0  0  0  0  0  0  0
    6.4788   -2.1744    0.8054 C   0  0  0  0  0  0  0  0  0  0  0  0
    5.0261   -1.9042    0.5313 C   0  0  0  0  0  0  0  0  0  0  0  0
    4.0969   -1.9501    1.5721 C   0  0  0  0  0  0  0  0  0  0  0  0
    2.7507   -1.6923    1.3135 C   0  0  0  0  0  0  0  0  0  0  0  0
    2.3414   -1.3919    0.0067 C   0  0  0  0  0  0  0  0  0  0  0  0
    0.9726   -1.0995   -0.3069 N   0  0  0  0  0  0  0  0  0  0  0  0
   -0.1622   -1.2433    0.5566 C   0  0  0  0  0  0  0  0  0  0  0  0
   -0.0546   -1.8575    1.7647 N   0  0  0  0  0  0  0  0  0  0  0  0
   -1.1373   -2.0175    2.5662 C   0  0  0  0  0  0  0  0  0  0  0  0
   -2.3861   -1.5552    2.1566 C   0  0  0  0  0  0  0  0  0  0  0  0
   -3.4491   -1.7149    2.9844 F   0  0  0  0  0  0  0  0  0  0  0  0
   -2.4961   -0.9264    0.9013 C   0  0  0  0  0  0  0  0  0  0  0  0
   -1.3735   -0.7909    0.1393 N   0  0  0  0  0  0  0  0  0  0  0  0
   -3.7825   -0.4001    0.3779 C   0  0  0  0  0  0  0  0  0  0  0  0
   -5.0215   -0.7293    0.9875 C   0  0  0  0  0  0  0  0  0  0  0  0
   -6.2351   -0.2340    0.4796 C   0  0  0  0  0  0  0  0  0  0  0  0
   -7.4140   -0.5368    1.0761 F   0  0  0  0  0  0  0  0  0  0  0  0
   -6.1818    0.5859   -0.6434 C   0  0  0  0  0  0  0  0  0  0  0  0
   -7.2099    1.1732   -1.2857 N   0  0  0  0  0  0  0  0  0  0  0  0
   -6.5918    1.8570   -2.2844 C   0  0  0  0  0  0  0  0  0  0  0  0
   -7.3393    2.6807   -3.2764 C   0  0  0  0  0  0  0  0  0  0  0  0
   -5.2427    1.7147   -2.2851 N   0  0  0  0  0  0  0  0  0  0  0  0
   -4.2945    2.3299   -3.2133 C   0  0  0  0  0  0  0  0  0  0  0  0
   -3.5083    1.2711   -3.9649 C   0  0  0  0  0  0  0  0  0  0  0  0
   -3.3540    3.2685   -2.4796 C   0  0  0  0  0  0  0  0  0  0  0  0
   -4.9981    0.9086   -1.2379 C   0  0  0  0  0  0  0  0  0  0  0  0
   -3.7755    0.4366   -0.7615 C   0  0  0  0  0  0  0  0  0  0  0  0
    3.2680   -1.3502   -0.9899 N   0  0  0  0  0  0  0  0  0  0  0  0
    4.5851   -1.6003   -0.7599 C   0  0  0  0  0  0  0  0  0  0  0  0
    7.3945   -0.2304   -0.2939 C   0  0  0  0  0  0  0  0  0  0  0  0
    7.6490    1.2553   -0.0611 C   0  0  0  0  0  0  0  0  0  0  0  0
  1  2  1  0
  2  3  1  0
  3  4  1  0
  4  5  1  0
  5  6  1  0
  6  7  1  0
  7  8  1  0
  8  9  2  0
  9 10  1  0
 10 11  2  0
 11 12  1  0
 12 13  1  0
 13 14  2  0
 14 15  1  0
 15 16  2  0
 16 17  1  0
 16 18  1  0
 18 19  2  0
 18 20  1  0
 20 21  2  0
 21 22  1  0
 22 23  1  0
 22 24  2  0
 24 25  1  0
 25 26  2  0
 26 27  1  0
 26 28  1  0
 28 29  1  0
 29 30  1  0
 29 31  1  0
 28 32  1  0
 32 33  2  0
 11 34  1  0
 34 35  2  0
  6 36  1  0
 36 37  1  0
 37  3  1  0
 35  8  1  0
 19 13  1  0
 33 20  1  0
 32 24  1  0
M  END
$$$$
