3035016
  -OEChem-01232513013D

 60 64  0     1  0  0  0  0  0999 V2000
   -2.3734    0.6160   -0.1510 O   0  0  0  0  0  0  0  0  0  0  0  0
   -4.7135    0.5076    0.2202 O   0  0  0  0  0  0  0  0  0  0  0  0
   -0.1505    1.5137    0.9409 O   0  0  0  0  0  0  0  0  0  0  0  0
    2.2120   -2.9803   -1.2205 O   0  0  0  0  0  0  0  0  0  0  0  0
   -0.8198   -3.7921    1.7613 O   0  0  0  0  0  0  0  0  0  0  0  0
   -4.1082    4.5525   -0.5110 O   0  0  0  0  0  0  0  0  0  0  0  0
   -6.3009    2.8832   -0.2038 O   0  0  0  0  0  0  0  0  0  0  0  0
    2.1188    2.5760    1.0010 O   0  0  0  0  0  0  0  0  0  0  0  0
    4.4210   -1.7831   -1.0586 O   0  0  0  0  0  0  0  0  0  0  0  0
   -2.7316   -4.1426   -0.9190 N   0  0  0  0  0  0  0  0  0  0  0  0
   -1.9412   -3.1128   -0.2422 C   0  0  2  0  0  0  0  0  0  0  0  0
   -2.6284   -1.7550   -0.3924 C   0  0  0  0  0  0  0  0  0  0  0  0
   -1.8423   -0.6316    0.2948 C   0  0  1  0  0  0  0  0  0  0  0  0
   -0.5366   -3.0665   -0.8600 C   0  0  0  0  0  0  0  0  0  0  0  0
   -0.3536   -0.6827    0.0338 C   0  0  0  0  0  0  0  0  0  0  0  0
    0.2610   -1.8403   -0.4757 C   0  0  0  0  0  0  0  0  0  0  0  0
   -3.4621    1.0349    0.6669 C   0  0  2  0  0  0  0  0  0  0  0  0
   -1.8860   -3.5342    1.2047 C   0  0  0  0  0  0  0  0  0  0  0  0
    0.4476    0.4226    0.3724 C   0  0  0  0  0  0  0  0  0  0  0  0
    1.6506   -1.8538   -0.6853 C   0  0  0  0  0  0  0  0  0  0  0  0
   -3.5011    2.5609    0.7262 C   0  0  0  0  0  0  0  0  0  0  0  0
    1.8329    0.3963    0.1710 C   0  0  0  0  0  0  0  0  0  0  0  0
    2.4338   -0.7407   -0.3623 C   0  0  0  0  0  0  0  0  0  0  0  0
   -3.9387    3.1443   -0.6167 C   0  0  1  0  0  0  0  0  0  0  0  0
   -5.2428    2.5017   -1.0847 C   0  0  1  0  0  0  0  0  0  0  0  0
   -5.1165    0.9815   -1.0688 C   0  0  0  0  0  0  0  0  0  0  0  0
   -3.1988   -3.6214    1.9348 C   0  0  0  0  0  0  0  0  0  0  0  0
    2.6462    1.5771    0.5278 C   0  0  0  0  0  0  0  0  0  0  0  0
    3.8933   -0.7836   -0.5868 C   0  0  0  0  0  0  0  0  0  0  0  0
    4.1058    1.5361    0.3046 C   0  0  0  0  0  0  0  0  0  0  0  0
    4.7077    0.3972   -0.2341 C   0  0  0  0  0  0  0  0  0  0  0  0
    4.8882    2.6488    0.6362 C   0  0  0  0  0  0  0  0  0  0  0  0
    6.0918    0.3704   -0.4416 C   0  0  0  0  0  0  0  0  0  0  0  0
    6.2674    2.6181    0.4278 C   0  0  0  0  0  0  0  0  0  0  0  0
    6.8680    1.4814   -0.1099 C   0  0  0  0  0  0  0  0  0  0  0  0
   -3.6554   -1.7802   -0.0102 H   0  0  0  0  0  0  0  0  0  0  0  0
   -2.7327   -1.5116   -1.4606 H   0  0  0  0  0  0  0  0  0  0  0  0
   -1.9460   -0.7446    1.3829 H   0  0  0  0  0  0  0  0  0  0  0  0
   -0.6202   -3.0565   -1.9563 H   0  0  0  0  0  0  0  0  0  0  0  0
    0.0067   -3.9796   -0.5824 H   0  0  0  0  0  0  0  0  0  0  0  0
   -3.3263    0.6933    1.6999 H   0  0  0  0  0  0  0  0  0  0  0  0
   -2.2303   -5.0306   -0.9078 H   0  0  0  0  0  0  0  0  0  0  0  0
   -2.8483   -3.9005   -1.9024 H   0  0  0  0  0  0  0  0  0  0  0  0
   -2.5247    2.9756    1.0004 H   0  0  0  0  0  0  0  0  0  0  0  0
   -4.2070    2.8846    1.5019 H   0  0  0  0  0  0  0  0  0  0  0  0
   -3.1525    2.9627   -1.3597 H   0  0  0  0  0  0  0  0  0  0  0  0
   -5.5151    2.8539   -2.0854 H   0  0  0  0  0  0  0  0  0  0  0  0
   -6.0866    0.5212   -1.2828 H   0  0  0  0  0  0  0  0  0  0  0  0
   -4.4036    0.6328   -1.8241 H   0  0  0  0  0  0  0  0  0  0  0  0
   -3.5854   -2.6210    2.1408 H   0  0  0  0  0  0  0  0  0  0  0  0
   -3.9333   -4.2046    1.3759 H   0  0  0  0  0  0  0  0  0  0  0  0
   -3.0373   -4.1265    2.8925 H   0  0  0  0  0  0  0  0  0  0  0  0
   -0.9774    1.2530    1.3739 H   0  0  0  0  0  0  0  0  0  0  0  0
    1.5829   -3.4246   -1.8110 H   0  0  0  0  0  0  0  0  0  0  0  0
   -4.3823    4.8813   -1.3841 H   0  0  0  0  0  0  0  0  0  0  0  0
   -6.3423    3.8548   -0.2039 H   0  0  0  0  0  0  0  0  0  0  0  0
    4.4440    3.5469    1.0567 H   0  0  0  0  0  0  0  0  0  0  0  0
    6.5840   -0.5038   -0.8591 H   0  0  0  0  0  0  0  0  0  0  0  0
    6.8739    3.4817    0.6851 H   0  0  0  0  0  0  0  0  0  0  0  0
    7.9419    1.4602   -0.2711 H   0  0  0  0  0  0  0  0  0  0  0  0
  1 13  1  0  0  0  0
  1 17  1  0  0  0  0
  2 17  1  0  0  0  0
  2 26  1  0  0  0  0
  3 19  1  0  0  0  0
  3 53  1  0  0  0  0
  4 20  1  0  0  0  0
  4 54  1  0  0  0  0
  5 18  2  0  0  0  0
  6 24  1  0  0  0  0
  6 55  1  0  0  0  0
  7 25  1  0  0  0  0
  7 56  1  0  0  0  0
  8 28  2  0  0  0  0
  9 29  2  0  0  0  0
 10 11  1  0  0  0  0
 10 42  1  0  0  0  0
 10 43  1  0  0  0  0
 11 12  1  0  0  0  0
 11 14  1  0  0  0  0
 11 18  1  0  0  0  0
 12 13  1  0  0  0  0
 12 36  1  0  0  0  0
 12 37  1  0  0  0  0
 13 15  1  0  0  0  0
 13 38  1  0  0  0  0
 14 16  1  0  0  0  0
 14 39  1  0  0  0  0
 14 40  1  0  0  0  0
 15 16  2  0  0  0  0
 15 19  1  0  0  0  0
 16 20  1  0  0  0  0
 17 21  1  0  0  0  0
 17 41  1  0  0  0  0
 18 27  1  0  0  0  0
 19 22  2  0  0  0  0
 20 23  2  0  0  0  0
 21 24  1  0  0  0  0
 21 44  1  0  0  0  0
 21 45  1  0  0  0  0
 22 23  1  0  0  0  0
 22 28  1  0  0  0  0
 23 29  1  0  0  0  0
 24 25  1  0  0  0  0
 24 46  1  0  0  0  0
 25 26  1  0  0  0  0
 25 47  1  0  0  0  0
 26 48  1  0  0  0  0
 26 49  1  0  0  0  0
 27 50  1  0  0  0  0
 27 51  1  0  0  0  0
 27 52  1  0  0  0  0
 28 30  1  0  0  0  0
 29 31  1  0  0  0  0
 30 31  1  0  0  0  0
 30 32  2  0  0  0  0
 31 33  2  0  0  0  0
 32 34  1  0  0  0  0
 32 57  1  0  0  0  0
 33 35  1  0  0  0  0
 33 58  1  0  0  0  0
 34 35  2  0  0  0  0
 34 59  1  0  0  0  0
 35 60  1  0  0  0  0
M  END
> <PUBCHEM_COMPOUND_CID>
3035016

> <PUBCHEM_CONFORMER_RMSD>
0.8

> <PUBCHEM_CONFORMER_DIVERSEORDER>
1
28
9
16
31
24
23
17
12
20
21
29
14
33
27
22
25
7
13
19
26
8
10
18
4
2
11
6
3
32
5
30
15

> <PUBCHEM_MMFF94_PARTIAL_CHARGES>
43
1 -0.56
10 -0.99
11 0.33
13 0.42
14 0.14
15 -0.14
16 -0.14
17 0.56
18 0.45
19 0.08
2 -0.56
20 0.08
22 0.09
23 0.09
24 0.28
25 0.28
26 0.28
27 0.06
28 0.4
29 0.4
3 -0.53
30 0.09
31 0.09
32 -0.15
33 -0.15
34 -0.15
35 -0.15
4 -0.53
42 0.36
43 0.36
5 -0.57
53 0.45
54 0.45
55 0.4
56 0.4
57 0.15
58 0.15
59 0.15
6 -0.68
60 0.15
7 -0.68
8 -0.57
9 -0.57

> <PUBCHEM_EFFECTIVE_ROTOR_COUNT>
5

> <PUBCHEM_PHARMACOPHORE_FEATURES>
18
1 1 acceptor
1 10 cation
1 10 donor
1 2 acceptor
1 3 donor
1 4 donor
1 5 acceptor
1 6 acceptor
1 6 donor
1 7 acceptor
1 7 donor
1 8 acceptor
1 9 acceptor
6 11 12 13 14 15 16 rings
6 15 16 19 20 22 23 rings
6 2 17 21 24 25 26 rings
6 22 23 28 29 30 31 rings
6 30 31 32 33 34 35 rings

> <PUBCHEM_HEAVY_ATOM_COUNT>
35

> <PUBCHEM_ATOM_DEF_STEREO_COUNT>
5

> <PUBCHEM_ATOM_UDEF_STEREO_COUNT>
0

> <PUBCHEM_BOND_DEF_STEREO_COUNT>
0

> <PUBCHEM_BOND_UDEF_STEREO_COUNT>
0

> <PUBCHEM_ISOTOPIC_ATOM_COUNT>
0

> <PUBCHEM_COMPONENT_COUNT>
1

> <PUBCHEM_CACTVS_TAUTO_COUNT>
54

> <PUBCHEM_CONFORMER_ID>
002E4F8800000001

> <PUBCHEM_MMFF94_ENERGY>
109.214

> <PUBCHEM_FEATURE_SELFOVERLAP>
91.462

> <PUBCHEM_SHAPE_FINGERPRINT>
10050765 1 18411980260983241790
10290309 65 18270977812006262574
10411042 1 17690559006721147047
10675989 125 17908424645414196952
1100329 8 18192147088664839298
11007060 377 18411420618100942545
11135609 187 18271523096642923585
12107183 9 18191010237049730434
12788726 201 18118950615486844099
13140716 1 18411422808840848514
13540713 4 18341068370967301486
13944108 23 17546160801606613677
14713325 29 18337674247048551963
14790565 3 18195809565990967837
15131766 46 15143240080734718991
15320467 1 18412543210678492272
15347591 1 18335703905991738736
15351339 4 18056189181618863753
15361156 5 18048603904190455054
15439362 3 18267866086202649780
15927050 60 18410289194666580387
16993438 75 18339080505341081867
17899979 129 17978504244473674229
17980427 26 18119511164442757759
18608769 82 18340487867856548315
18681886 176 17621026565859282715
19246450 95 17538530277177778024
19301676 85 17909563761605933694
20715895 44 18412542077249406348
21033648 144 18343590645981773213
21033648 29 18187373082328051517
21236236 1 18270119157284313630
21279426 13 18201447995542495724
22182313 1 18057627506226031982
23516275 137 17131007377700492151
23559900 14 18130784620534515576
23569914 152 17341267961169088244
23576562 1 18190473830147712196
335352 9 18269839723160900126
3380486 145 17907020934712987319
3418910 222 17391362075945526604
350125 39 18055359290904604570
376196 1 18267303123686229463
4015057 19 17703792505080805368
4058900 60 18264210197435143121
4073 2 18335702801926609648
4144715 1 18334867147162213626
4258327 124 17895489135989618405
508706 21 18340482386829243744
5104073 3 18339923831434462610
5171179 24 17485353805474580049
5283173 99 18411979195777799144
550186 72 17905610252277153484
6086070 43 16988272179817561778
6371380 46 18263649451116624590
70251023 43 9799399036153069302
7288768 16 18260544511714916935

> <PUBCHEM_SHAPE_MULTIPOLES>
662.48
13.94
5.62
1.17
11.29
1.37
-0.25
-13.98
1.47
-7.68
-0.37
-0.69
0.77
2.73

> <PUBCHEM_SHAPE_SELFOVERLAP>
1477.253

> <PUBCHEM_SHAPE_VOLUME>
345.2

> <PUBCHEM_COORDINATE_TYPE>
2
5
10

$$$$
