Cisplatin
     RDKit          3D

  0  0  0  0  0  0  0  0  0  0999 V3000
M  V30 BEGIN CTAB
M  V30 COUNTS 11 10 0 0 0
M  V30 BEGIN ATOM
M  V30 1 N -1.555904 -0.306995 0.353504 0
M  V30 2 Pt 0.024606 0.494958 0.106066 0 VAL=4
M  V30 3 Cl 0.077010 2.011482 0.212064 0
M  V30 4 Cl 0.076997 2.011481 0.212026 0
M  V30 5 N 1.529819 -0.340881 -0.434013 0
M  V30 6 H -2.534588 -0.069395 0.629997 0
M  V30 7 H -1.205972 -0.998880 1.053239 0
M  V30 8 H -1.615728 -0.808763 -0.560517 0
M  V30 9 H 1.134008 -0.838932 -1.262303 0
M  V30 10 H 2.525990 -0.124977 -0.661510 0
M  V30 11 H 1.543760 -1.029098 0.351447 0
M  V30 END ATOM
M  V30 BEGIN BOND
M  V30 1 9 1 2
M  V30 2 1 2 3
M  V30 3 1 2 4
M  V30 4 9 5 2
M  V30 5 1 1 6
M  V30 6 1 1 7
M  V30 7 1 1 8
M  V30 8 1 5 9
M  V30 9 1 5 10
M  V30 10 1 5 11
M  V30 END BOND
M  V30 END CTAB
M  END
>  <SMILES>  (1) 
[H][N]([H])([H])[Pt](Cl)(Cl)[N]([H])([H])[H]

$$$$
