259331
  -OEChem-01232513013D

 60 63  0     1  0  0  0  0  0999 V2000
   -7.1369   -3.2285   -0.6086 Cl  0  0  0  0  0  0  0  0  0  0  0  0
   -7.4516    3.5642    1.2107 Cl  0  0  0  0  0  0  0  0  0  0  0  0
    7.4935    1.5648   -0.1134 O   0  0  0  0  0  0  0  0  0  0  0  0
   -3.2506   -0.5707   -0.6238 O   0  0  0  0  0  0  0  0  0  0  0  0
   -3.2478    1.2628    0.7876 O   0  0  0  0  0  0  0  0  0  0  0  0
   -5.2799    0.2855    0.2172 N   0  0  0  0  0  0  0  0  0  0  0  0
    5.1707    0.7367   -0.1066 C   0  0  1  0  0  0  0  0  0  0  0  0
    4.6251   -0.6497    0.2907 C   0  0  2  0  0  0  0  0  0  0  0  0
    3.1077   -0.6418    0.4732 C   0  0  1  0  0  0  0  0  0  0  0  0
    2.4441   -0.2523   -0.8826 C   0  0  2  0  0  0  0  0  0  0  0  0
    6.6761    0.4107   -0.1420 C   0  0  2  0  0  0  0  0  0  0  0  0
    4.5615    1.1190   -1.4610 C   0  0  0  0  0  0  0  0  0  0  0  0
    5.5167   -1.0611    1.4588 C   0  0  0  0  0  0  0  0  0  0  0  0
    3.0214    1.0817   -1.4278 C   0  0  0  0  0  0  0  0  0  0  0  0
    6.8948   -0.4758    1.0996 C   0  0  0  0  0  0  0  0  0  0  0  0
    2.5626   -1.9990    0.9219 C   0  0  0  0  0  0  0  0  0  0  0  0
    4.8879    1.8647    0.9184 C   0  0  0  0  0  0  0  0  0  0  0  0
    0.9216   -0.3086   -0.7897 C   0  0  0  0  0  0  0  0  0  0  0  0
    1.0712   -1.8842    1.2225 C   0  0  0  0  0  0  0  0  0  0  0  0
    0.2920   -1.1167    0.1825 C   0  0  0  0  0  0  0  0  0  0  0  0
    0.1105    0.3664   -1.7191 C   0  0  0  0  0  0  0  0  0  0  0  0
   -1.1115   -1.1856    0.2338 C   0  0  0  0  0  0  0  0  0  0  0  0
   -1.2824    0.2819   -1.6623 C   0  0  0  0  0  0  0  0  0  0  0  0
   -1.8939   -0.4900   -0.6831 C   0  0  0  0  0  0  0  0  0  0  0  0
   -3.8859    0.4022    0.1822 C   0  0  0  0  0  0  0  0  0  0  0  0
   -6.0274   -0.7369   -0.5075 C   0  0  0  0  0  0  0  0  0  0  0  0
   -6.0726    1.2178    1.0061 C   0  0  0  0  0  0  0  0  0  0  0  0
   -6.2269   -2.0028    0.3087 C   0  0  0  0  0  0  0  0  0  0  0  0
   -6.4897    2.4453    0.2136 C   0  0  0  0  0  0  0  0  0  0  0  0
    4.8450   -1.3601   -0.5240 H   0  0  0  0  0  0  0  0  0  0  0  0
    2.8344    0.0931    1.2415 H   0  0  0  0  0  0  0  0  0  0  0  0
    2.7119   -1.0270   -1.6179 H   0  0  0  0  0  0  0  0  0  0  0  0
    6.9263   -0.1578   -1.0468 H   0  0  0  0  0  0  0  0  0  0  0  0
    4.8994    2.1150   -1.7711 H   0  0  0  0  0  0  0  0  0  0  0  0
    4.9067    0.4222   -2.2361 H   0  0  0  0  0  0  0  0  0  0  0  0
    5.1582   -0.6422    2.4055 H   0  0  0  0  0  0  0  0  0  0  0  0
    5.5653   -2.1486    1.5747 H   0  0  0  0  0  0  0  0  0  0  0  0
    2.6756    1.2525   -2.4538 H   0  0  0  0  0  0  0  0  0  0  0  0
    2.6394    1.9210   -0.8343 H   0  0  0  0  0  0  0  0  0  0  0  0
    7.6094   -1.2740    0.8693 H   0  0  0  0  0  0  0  0  0  0  0  0
    7.3093    0.0891    1.9422 H   0  0  0  0  0  0  0  0  0  0  0  0
    2.7292   -2.7493    0.1382 H   0  0  0  0  0  0  0  0  0  0  0  0
    3.0774   -2.3570    1.8204 H   0  0  0  0  0  0  0  0  0  0  0  0
    5.3077    2.8157    0.5703 H   0  0  0  0  0  0  0  0  0  0  0  0
    3.8197    2.0326    1.0789 H   0  0  0  0  0  0  0  0  0  0  0  0
    5.3286    1.6594    1.8990 H   0  0  0  0  0  0  0  0  0  0  0  0
    0.9394   -1.3735    2.1852 H   0  0  0  0  0  0  0  0  0  0  0  0
    0.6565   -2.8942    1.3268 H   0  0  0  0  0  0  0  0  0  0  0  0
    8.4169    1.2669   -0.0503 H   0  0  0  0  0  0  0  0  0  0  0  0
    0.5447    0.9669   -2.5127 H   0  0  0  0  0  0  0  0  0  0  0  0
   -1.5951   -1.7917    0.9973 H   0  0  0  0  0  0  0  0  0  0  0  0
   -1.8816    0.8205   -2.3916 H   0  0  0  0  0  0  0  0  0  0  0  0
   -5.4841   -0.9791   -1.4282 H   0  0  0  0  0  0  0  0  0  0  0  0
   -6.9915   -0.3153   -0.8161 H   0  0  0  0  0  0  0  0  0  0  0  0
   -5.4751    1.5337    1.8701 H   0  0  0  0  0  0  0  0  0  0  0  0
   -6.9478    0.6905    1.4039 H   0  0  0  0  0  0  0  0  0  0  0  0
   -6.7836   -1.7975    1.2281 H   0  0  0  0  0  0  0  0  0  0  0  0
   -5.2660   -2.4448    0.5906 H   0  0  0  0  0  0  0  0  0  0  0  0
   -7.0981    2.1694   -0.6532 H   0  0  0  0  0  0  0  0  0  0  0  0
   -5.6158    2.9938   -0.1518 H   0  0  0  0  0  0  0  0  0  0  0  0
  1 28  1  0  0  0  0
  2 29  1  0  0  0  0
  3 11  1  0  0  0  0
  3 49  1  0  0  0  0
  4 24  1  0  0  0  0
  4 25  1  0  0  0  0
  5 25  2  0  0  0  0
  6 25  1  0  0  0  0
  6 26  1  0  0  0  0
  6 27  1  0  0  0  0
  7  8  1  0  0  0  0
  7 11  1  0  0  0  0
  7 12  1  0  0  0  0
  7 17  1  0  0  0  0
  8  9  1  0  0  0  0
  8 13  1  0  0  0  0
  8 30  1  0  0  0  0
  9 10  1  0  0  0  0
  9 16  1  0  0  0  0
  9 31  1  0  0  0  0
 10 14  1  0  0  0  0
 10 18  1  0  0  0  0
 10 32  1  0  0  0  0
 11 15  1  0  0  0  0
 11 33  1  0  0  0  0
 12 14  1  0  0  0  0
 12 34  1  0  0  0  0
 12 35  1  0  0  0  0
 13 15  1  0  0  0  0
 13 36  1  0  0  0  0
 13 37  1  0  0  0  0
 14 38  1  0  0  0  0
 14 39  1  0  0  0  0
 15 40  1  0  0  0  0
 15 41  1  0  0  0  0
 16 19  1  0  0  0  0
 16 42  1  0  0  0  0
 16 43  1  0  0  0  0
 17 44  1  0  0  0  0
 17 45  1  0  0  0  0
 17 46  1  0  0  0  0
 18 20  2  0  0  0  0
 18 21  1  0  0  0  0
 19 20  1  0  0  0  0
 19 47  1  0  0  0  0
 19 48  1  0  0  0  0
 20 22  1  0  0  0  0
 21 23  2  0  0  0  0
 21 50  1  0  0  0  0
 22 24  2  0  0  0  0
 22 51  1  0  0  0  0
 23 24  1  0  0  0  0
 23 52  1  0  0  0  0
 26 28  1  0  0  0  0
 26 53  1  0  0  0  0
 26 54  1  0  0  0  0
 27 29  1  0  0  0  0
 27 55  1  0  0  0  0
 27 56  1  0  0  0  0
 28 57  1  0  0  0  0
 28 58  1  0  0  0  0
 29 59  1  0  0  0  0
 29 60  1  0  0  0  0
M  END
> <PUBCHEM_COMPOUND_CID>
259331

> <PUBCHEM_CONFORMER_RMSD>
1

> <PUBCHEM_CONFORMER_DIVERSEORDER>
1
12
43
16
46
29
39
27
6
47
42
5
35
41
21
17
22
32
14
36
15
24
20
19
38
28
7
18
30
31
10
40
34
37
45
44
48
23
2
26
11
25
4
8
3
9
13
33

> <PUBCHEM_MMFF94_PARTIAL_CHARGES>
24
1 -0.29
10 0.14
11 0.28
18 -0.14
19 0.14
2 -0.29
20 -0.14
21 -0.15
22 -0.15
23 -0.15
24 0.08
25 0.78
26 0.3
27 0.3
28 0.29
29 0.29
3 -0.68
4 -0.23
49 0.4
5 -0.57
50 0.15
51 0.15
52 0.15
6 -0.66

> <PUBCHEM_EFFECTIVE_ROTOR_COUNT>
8.4

> <PUBCHEM_PHARMACOPHORE_FEATURES>
7
1 3 acceptor
1 3 donor
1 5 acceptor
5 7 8 11 13 15 rings
6 18 20 21 22 23 24 rings
6 7 8 9 10 12 14 rings
6 9 10 16 18 19 20 rings

> <PUBCHEM_HEAVY_ATOM_COUNT>
29

> <PUBCHEM_ATOM_DEF_STEREO_COUNT>
5

> <PUBCHEM_ATOM_UDEF_STEREO_COUNT>
0

> <PUBCHEM_BOND_DEF_STEREO_COUNT>
0

> <PUBCHEM_BOND_UDEF_STEREO_COUNT>
0

> <PUBCHEM_ISOTOPIC_ATOM_COUNT>
0

> <PUBCHEM_COMPONENT_COUNT>
1

> <PUBCHEM_CACTVS_TAUTO_COUNT>
1

> <PUBCHEM_CONFORMER_ID>
0003F50300000001

> <PUBCHEM_MMFF94_ENERGY>
88.8122

> <PUBCHEM_FEATURE_SELFOVERLAP>
35.62

> <PUBCHEM_SHAPE_FINGERPRINT>
10670039 82 16128382531939998376
11315181 36 18334855039938945703
11456790 92 18335697235533288056
11578080 2 18052249898440002280
11724838 91 18114459058963303150
12236239 1 18409728452325790447
12596602 18 18413108355533184179
12778500 126 18340768135720563264
13533116 47 18335698309317289898
13540713 4 16880180114413091887
13631057 29 18338514257644412083
13782708 43 13046239307329729929
14251764 18 18114180873836433310
14341114 176 17530961372439293878
14394314 77 18409169900588471417
14849402 71 18261958573736501892
14856354 85 17845648287478608935
15183329 4 12175621754912405429
15238133 3 18342741810452888268
1577012 14 18408887321440096913
16989713 51 17346024706512074991
20028762 73 18114176454078553514
20511986 3 18260542283053995649
21130935 74 18408319973699485210
21150785 3 11167931463889574001
21267235 1 17531240614376194338
21781055 127 18262252036704894468
21792961 116 16056891221388442406
22122407 14 18341905086109345313
221357 26 12967129384964474378
22224240 67 17894907469037848642
23081809 10 17967541194157021349
23522609 53 17896625983894809845
23559900 14 12324250498038770255
23569917 315 18113621213465166274
23576562 1 14979088376845426929
24771293 8 18186805794246554780
249057 25 18188217606237454925
2838139 119 17989481918445879793
3004659 81 13686302383625942342
3178227 256 16877949313221666704
335352 9 17749390404164320110
3383291 50 14418147205503954753
34797466 226 17345764108547995348
3633792 109 17676755536378053911
3663271 9 18408039606844805811
4073 2 18408609141395126675
4093350 32 18341335470508987754
465052 167 15285361713101747046
5104073 3 17676775369502577944
5758199 1 18187086152252128282

> <PUBCHEM_SHAPE_MULTIPOLES>
577.96
22.58
2.75
1.42
13.63
0.57
0.23
7
-5.58
7.05
-0.83
-0.65
0.21
-3.1

> <PUBCHEM_SHAPE_SELFOVERLAP>
1202.318

> <PUBCHEM_SHAPE_VOLUME>
332.2

> <PUBCHEM_COORDINATE_TYPE>
2
5
10

$$$$
