46936889
  -OEChem-01232513013D

 38 37  0     1  0  0  0  0  0999 V2000
    6.4689    1.0333    0.4247 Cl  0  0  0  0  0  0  0  0  0  0  0  0
   -2.1945   -0.0186   -0.3998 P   0  0  0  0  0  0  0  0  0  0  0  0
   -2.3442   -1.3975    0.4396 O   0  0  0  0  0  0  0  0  0  0  0  0
   -3.5406    0.7742    0.0232 O   0  0  0  0  0  0  0  0  0  0  0  0
   -2.0236   -0.2167   -1.8791 O   0  0  0  0  0  0  0  0  0  0  0  0
    1.7673    1.9225    0.0067 O   0  0  0  0  0  0  0  0  0  0  0  0
    3.4671   -2.2962   -0.6925 O   0  0  0  0  0  0  0  0  0  0  0  0
    0.3736    0.0939    0.1054 N   0  0  0  0  0  0  0  0  0  0  0  0
    2.6753   -0.1783   -0.3532 N   0  0  0  0  0  0  0  0  0  0  0  0
    2.4451   -1.6492   -0.4401 N   0  0  0  0  0  0  0  0  0  0  0  0
   -0.8387    0.8443    0.3983 C   0  0  2  0  0  0  0  0  0  0  0  0
   -1.0052    1.0482    1.8958 C   0  0  0  0  0  0  0  0  0  0  0  0
    1.6157    0.6993   -0.0731 C   0  0  0  0  0  0  0  0  0  0  0  0
   -3.3423   -2.3316    0.0678 C   0  0  0  0  0  0  0  0  0  0  0  0
   -3.9063    1.9711   -0.6381 C   0  0  0  0  0  0  0  0  0  0  0  0
    4.0257    0.3269   -0.5658 C   0  0  0  0  0  0  0  0  0  0  0  0
   -3.2745   -3.5227    0.9997 C   0  0  0  0  0  0  0  0  0  0  0  0
   -5.1972    2.4896   -0.0412 C   0  0  0  0  0  0  0  0  0  0  0  0
    4.8283    0.4073    0.7218 C   0  0  0  0  0  0  0  0  0  0  0  0
   -0.7504    1.8288   -0.0746 H   0  0  0  0  0  0  0  0  0  0  0  0
   -1.9163    1.6151    2.1095 H   0  0  0  0  0  0  0  0  0  0  0  0
   -0.1538    1.5911    2.3190 H   0  0  0  0  0  0  0  0  0  0  0  0
   -1.0813    0.0879    2.4165 H   0  0  0  0  0  0  0  0  0  0  0  0
    0.2901   -0.9158    0.0815 H   0  0  0  0  0  0  0  0  0  0  0  0
   -4.3258   -1.8562    0.1322 H   0  0  0  0  0  0  0  0  0  0  0  0
   -3.1709   -2.6496   -0.9652 H   0  0  0  0  0  0  0  0  0  0  0  0
   -3.1082    2.7096   -0.5163 H   0  0  0  0  0  0  0  0  0  0  0  0
   -4.0382    1.7670   -1.7051 H   0  0  0  0  0  0  0  0  0  0  0  0
    3.9472    1.3325   -0.9982 H   0  0  0  0  0  0  0  0  0  0  0  0
    4.5384   -0.2822   -1.3196 H   0  0  0  0  0  0  0  0  0  0  0  0
   -2.2870   -3.9935    0.9523 H   0  0  0  0  0  0  0  0  0  0  0  0
   -3.4279   -3.2091    2.0376 H   0  0  0  0  0  0  0  0  0  0  0  0
   -4.0332   -4.2660    0.7396 H   0  0  0  0  0  0  0  0  0  0  0  0
   -5.9955    1.7473   -0.1450 H   0  0  0  0  0  0  0  0  0  0  0  0
   -5.0769    2.6796    1.0305 H   0  0  0  0  0  0  0  0  0  0  0  0
   -5.5100    3.4158   -0.5311 H   0  0  0  0  0  0  0  0  0  0  0  0
    4.3458    1.0706    1.4466 H   0  0  0  0  0  0  0  0  0  0  0  0
    4.9305   -0.5786    1.1858 H   0  0  0  0  0  0  0  0  0  0  0  0
  1 19  1  0  0  0  0
  2  3  1  0  0  0  0
  2  4  1  0  0  0  0
  2  5  2  0  0  0  0
  2 11  1  0  0  0  0
  3 14  1  0  0  0  0
  4 15  1  0  0  0  0
  6 13  2  0  0  0  0
  7 10  2  0  0  0  0
  8 11  1  0  0  0  0
  8 13  1  0  0  0  0
  8 24  1  0  0  0  0
  9 10  1  0  0  0  0
  9 13  1  0  0  0  0
  9 16  1  0  0  0  0
 11 12  1  0  0  0  0
 11 20  1  0  0  0  0
 12 21  1  0  0  0  0
 12 22  1  0  0  0  0
 12 23  1  0  0  0  0
 14 17  1  0  0  0  0
 14 25  1  0  0  0  0
 14 26  1  0  0  0  0
 15 18  1  0  0  0  0
 15 27  1  0  0  0  0
 15 28  1  0  0  0  0
 16 19  1  0  0  0  0
 16 29  1  0  0  0  0
 16 30  1  0  0  0  0
 17 31  1  0  0  0  0
 17 32  1  0  0  0  0
 17 33  1  0  0  0  0
 18 34  1  0  0  0  0
 18 35  1  0  0  0  0
 18 36  1  0  0  0  0
 19 37  1  0  0  0  0
 19 38  1  0  0  0  0
M  END
> <PUBCHEM_COMPOUND_CID>
46936889

> <PUBCHEM_CONFORMER_RMSD>
1

> <PUBCHEM_CONFORMER_DIVERSEORDER>
1
26
76
20
57
80
64
94
25
8
52
53
23
51
40
5
77
67
91
81
41
74
50
89
69
39
33
43
88
15
29
62
28
37
46
63
58
3
66
24
68
82
79
92
49
75
45
27
36
44
13
72
4
22
86
31
59
73
21
35
65
71
14
47
34
10
48
78
87
32
93
70
16
85
56
55
60
17
19
42
84
11
54
83
12
38
7
6
90
9
18
30
61
2

> <PUBCHEM_MMFF94_PARTIAL_CHARGES>
17
1 -0.29
10 -0.02
11 0.3
13 0.69
14 0.28
15 0.28
16 0.3
19 0.29
2 1.24
24 0.37
3 -0.55
4 -0.55
5 -0.7
6 -0.57
7 -0.16
8 -0.73
9 -0.18

> <PUBCHEM_EFFECTIVE_ROTOR_COUNT>
11

> <PUBCHEM_PHARMACOPHORE_FEATURES>
3
1 5 acceptor
1 6 acceptor
1 8 donor

> <PUBCHEM_HEAVY_ATOM_COUNT>
19

> <PUBCHEM_ATOM_DEF_STEREO_COUNT>
1

> <PUBCHEM_ATOM_UDEF_STEREO_COUNT>
0

> <PUBCHEM_BOND_DEF_STEREO_COUNT>
0

> <PUBCHEM_BOND_UDEF_STEREO_COUNT>
0

> <PUBCHEM_ISOTOPIC_ATOM_COUNT>
0

> <PUBCHEM_COMPONENT_COUNT>
1

> <PUBCHEM_CACTVS_TAUTO_COUNT>
2

> <PUBCHEM_CONFORMER_ID>
02CC333900000001

> <PUBCHEM_MMFF94_ENERGY>
17.613

> <PUBCHEM_FEATURE_SELFOVERLAP>
15.223

> <PUBCHEM_SHAPE_FINGERPRINT>
10366900 7 11959723889270770012
12500047 106 18409445877990257461
12616971 3 16805605876167266116
12788726 201 17202485494128760481
13533116 47 17773874190755545718
13583140 156 18131348652207505513
15375358 24 18271523117758290708
19433438 15 17676496055184762180
200 152 17775279474006103484
20645476 183 18338229380699583977
20645477 56 18334573517005795557
20645477 70 17560238016537763830
20681677 155 18409445860736606937
23402539 116 16081078295039421916
23557571 272 18410292544571590625
23559900 14 18342737378299463232
300161 21 18340762663684411964
34934 24 18342732984152481820
3545911 37 18341614802138482688
4921388 177 18040718090990203515
5104073 3 18412824686081536218
77188 2 17759245490023910731
9709674 26 18412829083637572815

> <PUBCHEM_SHAPE_MULTIPOLES>
352.44
12.04
3.03
1.15
12.83
2.33
-0.14
-3.49
-0.4
-4.88
-0.42
-0.39
0
1.34

> <PUBCHEM_SHAPE_SELFOVERLAP>
637.339

> <PUBCHEM_SHAPE_VOLUME>
227

> <PUBCHEM_COORDINATE_TYPE>
2
5
10

$$$$
