22024915
  -OEChem-01232513013D

 50 53  0     0  0  0  0  0  0999 V2000
   -2.5846    1.1382    1.0156 O   0  0  0  0  0  0  0  0  0  0  0  0
   -3.6524   -1.2681    0.9768 O   0  0  0  0  0  0  0  0  0  0  0  0
   -4.5942    2.3864   -0.6603 O   0  0  0  0  0  0  0  0  0  0  0  0
   -5.9161   -0.1568   -0.4411 O   0  0  0  0  0  0  0  0  0  0  0  0
    2.2432    0.5430   -0.6776 N   0  0  0  0  0  0  0  0  0  0  0  0
    0.4262   -3.1745   -0.7069 N   0  0  0  0  0  0  0  0  0  0  0  0
    2.3430   -1.7686   -1.0988 N   0  0  0  0  0  0  0  0  0  0  0  0
    0.2800   -0.8211   -0.2671 C   0  0  0  0  0  0  0  0  0  0  0  0
   -1.7901    0.1232    0.5613 C   0  0  0  0  0  0  0  0  0  0  0  0
   -2.3590   -1.1521    0.5359 C   0  0  0  0  0  0  0  0  0  0  0  0
   -0.2832   -2.1080   -0.2982 C   0  0  0  0  0  0  0  0  0  0  0  0
   -0.4651    0.2900    0.1669 C   0  0  0  0  0  0  0  0  0  0  0  0
   -1.6046   -2.2536    0.1156 C   0  0  0  0  0  0  0  0  0  0  0  0
    1.6052   -0.7225   -0.6817 C   0  0  0  0  0  0  0  0  0  0  0  0
   -2.4325    2.3986    0.3531 C   0  0  0  0  0  0  0  0  0  0  0  0
   -4.5012   -2.0187    0.1011 C   0  0  0  0  0  0  0  0  0  0  0  0
   -3.8108    3.0479    0.3373 C   0  0  0  0  0  0  0  0  0  0  0  0
   -5.9061   -1.4340    0.2007 C   0  0  0  0  0  0  0  0  0  0  0  0
   -5.9680    2.2304   -0.3046 C   0  0  0  0  0  0  0  0  0  0  0  0
   -6.1585    0.9257    0.4601 C   0  0  0  0  0  0  0  0  0  0  0  0
    3.5809    0.9286   -0.4974 C   0  0  0  0  0  0  0  0  0  0  0  0
    1.7001   -2.9471   -1.0859 C   0  0  0  0  0  0  0  0  0  0  0  0
    4.4257    0.1632    0.3066 C   0  0  0  0  0  0  0  0  0  0  0  0
    4.0654    2.0775   -1.1227 C   0  0  0  0  0  0  0  0  0  0  0  0
    5.7547    0.5469    0.4853 C   0  0  0  0  0  0  0  0  0  0  0  0
    5.3944    2.4612   -0.9440 C   0  0  0  0  0  0  0  0  0  0  0  0
    6.2391    1.6959   -0.1400 C   0  0  0  0  0  0  0  0  0  0  0  0
    6.6204   -0.2366    1.3089 C   0  0  0  0  0  0  0  0  0  0  0  0
    7.3480   -0.8950    2.0011 C   0  0  0  0  0  0  0  0  0  0  0  0
   -0.0200    1.2791    0.2235 H   0  0  0  0  0  0  0  0  0  0  0  0
   -2.0500   -3.2467    0.1196 H   0  0  0  0  0  0  0  0  0  0  0  0
   -2.0720    2.2786   -0.6761 H   0  0  0  0  0  0  0  0  0  0  0  0
   -1.7314    3.0097    0.9305 H   0  0  0  0  0  0  0  0  0  0  0  0
   -4.5074   -3.0629    0.4311 H   0  0  0  0  0  0  0  0  0  0  0  0
   -4.1575   -1.9586   -0.9396 H   0  0  0  0  0  0  0  0  0  0  0  0
   -4.2773    2.9729    1.3264 H   0  0  0  0  0  0  0  0  0  0  0  0
   -3.7341    4.1020    0.0541 H   0  0  0  0  0  0  0  0  0  0  0  0
   -6.6074   -2.0747   -0.3430 H   0  0  0  0  0  0  0  0  0  0  0  0
   -6.2357   -1.3632    1.2439 H   0  0  0  0  0  0  0  0  0  0  0  0
   -6.5330    2.1935   -1.2419 H   0  0  0  0  0  0  0  0  0  0  0  0
   -6.3190    3.0937    0.2716 H   0  0  0  0  0  0  0  0  0  0  0  0
   -5.4628    0.8641    1.3032 H   0  0  0  0  0  0  0  0  0  0  0  0
   -7.1875    0.8536    0.8276 H   0  0  0  0  0  0  0  0  0  0  0  0
    1.6642    1.2773   -1.0759 H   0  0  0  0  0  0  0  0  0  0  0  0
    2.2655   -3.8106   -1.4145 H   0  0  0  0  0  0  0  0  0  0  0  0
    4.0534   -0.7267    0.8099 H   0  0  0  0  0  0  0  0  0  0  0  0
    3.4185    2.6827   -1.7526 H   0  0  0  0  0  0  0  0  0  0  0  0
    5.7716    3.3557   -1.4311 H   0  0  0  0  0  0  0  0  0  0  0  0
    7.2727    2.0081   -0.0106 H   0  0  0  0  0  0  0  0  0  0  0  0
    7.9933   -1.4790    2.6149 H   0  0  0  0  0  0  0  0  0  0  0  0
  1  9  1  0  0  0  0
  1 15  1  0  0  0  0
  2 10  1  0  0  0  0
  2 16  1  0  0  0  0
  3 17  1  0  0  0  0
  3 19  1  0  0  0  0
  4 18  1  0  0  0  0
  4 20  1  0  0  0  0
  5 14  1  0  0  0  0
  5 21  1  0  0  0  0
  5 44  1  0  0  0  0
  6 11  1  0  0  0  0
  6 22  2  0  0  0  0
  7 14  2  0  0  0  0
  7 22  1  0  0  0  0
  8 11  1  0  0  0  0
  8 12  2  0  0  0  0
  8 14  1  0  0  0  0
  9 10  2  0  0  0  0
  9 12  1  0  0  0  0
 10 13  1  0  0  0  0
 11 13  2  0  0  0  0
 12 30  1  0  0  0  0
 13 31  1  0  0  0  0
 15 17  1  0  0  0  0
 15 32  1  0  0  0  0
 15 33  1  0  0  0  0
 16 18  1  0  0  0  0
 16 34  1  0  0  0  0
 16 35  1  0  0  0  0
 17 36  1  0  0  0  0
 17 37  1  0  0  0  0
 18 38  1  0  0  0  0
 18 39  1  0  0  0  0
 19 20  1  0  0  0  0
 19 40  1  0  0  0  0
 19 41  1  0  0  0  0
 20 42  1  0  0  0  0
 20 43  1  0  0  0  0
 21 23  1  0  0  0  0
 21 24  2  0  0  0  0
 22 45  1  0  0  0  0
 23 25  2  0  0  0  0
 23 46  1  0  0  0  0
 24 26  1  0  0  0  0
 24 47  1  0  0  0  0
 25 27  1  0  0  0  0
 25 28  1  0  0  0  0
 26 27  2  0  0  0  0
 26 48  1  0  0  0  0
 27 49  1  0  0  0  0
 28 29  3  0  0  0  0
 29 50  1  0  0  0  0
M  END
> <PUBCHEM_COMPOUND_CID>
22024915

> <PUBCHEM_CONFORMER_RMSD>
0.8

> <PUBCHEM_CONFORMER_DIVERSEORDER>
1
24
65
23
76
86
36
18
82
35
59
75
53
42
19
84
10
11
78
58
48
21
68
57
92
67
52
27
61
77
88
91
72
8
31
44
43
64
83
3
6
17
40
80
2
14
62
7
81
20
66
70
73
71
30
26
89
87
37
16
49
85
32
9
5
45
54
29
4
46
55
41
12
13
15
25
38
50
79
47
63
60
90
22
93
33
28
34
56
51
39
74
69

> <PUBCHEM_MMFF94_PARTIAL_CHARGES>
37
1 -0.36
10 0.08
11 0.31
12 -0.15
13 -0.15
14 0.41
15 0.28
16 0.28
17 0.28
18 0.28
19 0.28
2 -0.36
20 0.28
21 0.1
22 0.47
23 -0.15
24 -0.15
25 0.07
26 -0.15
27 -0.15
28 -0.07
29 -0.18
3 -0.56
30 0.15
31 0.15
4 -0.56
44 0.4
45 0.15
46 0.15
47 0.15
48 0.15
49 0.15
5 -0.6
50 0.18
6 -0.62
7 -0.62
9 0.08

> <PUBCHEM_EFFECTIVE_ROTOR_COUNT>
4

> <PUBCHEM_PHARMACOPHORE_FEATURES>
11
1 1 acceptor
1 2 acceptor
1 29 hydrophobe
1 3 acceptor
1 4 acceptor
1 5 donor
3 5 7 14 cation
3 6 7 22 cation
6 21 23 24 25 26 27 rings
6 6 7 8 11 14 22 rings
6 8 9 10 11 12 13 rings

> <PUBCHEM_HEAVY_ATOM_COUNT>
29

> <PUBCHEM_ATOM_DEF_STEREO_COUNT>
0

> <PUBCHEM_ATOM_UDEF_STEREO_COUNT>
0

> <PUBCHEM_BOND_DEF_STEREO_COUNT>
0

> <PUBCHEM_BOND_UDEF_STEREO_COUNT>
0

> <PUBCHEM_ISOTOPIC_ATOM_COUNT>
0

> <PUBCHEM_COMPONENT_COUNT>
1

> <PUBCHEM_CACTVS_TAUTO_COUNT>
3

> <PUBCHEM_CONFORMER_ID>
015012D300000001

> <PUBCHEM_MMFF94_ENERGY>
113.3756

> <PUBCHEM_FEATURE_SELFOVERLAP>
56.009

> <PUBCHEM_SHAPE_FINGERPRINT>
11135609 149 16199048089166684372
11719270 70 18343302565730898958
12107183 9 18261948545556688152
12236239 1 18114460166932834386
12403259 118 18409446986376676048
12422481 6 17821728329857821876
12596602 18 17676768798624653786
13167372 99 18334011713897923212
13914758 101 18040148509206038816
14294032 229 18131073787264786351
14347424 109 18187075188202889544
15064986 96 17986945264429130782
15461852 350 17632569492456586540
17980427 23 17968103057378442837
20554085 129 17845356800589570490
21033648 29 18058995286117287640
21065198 48 18187085092202418424
21236236 1 18410013256308369957
21403212 168 18262225609264381994
21792964 463 17389395019308963692
21859007 373 17460307755132735293
22122407 14 17605289569099333108
23559900 14 18126289627547047135
2838139 119 18411975896963282621
350125 39 18340490066104571240
437815 12 11963394029008692447
5085150 59 18342451552019715378
5104073 3 18264500498722413995
513202 73 16515951568185906196
6299153 45 18187642466760567848
6371009 1 18341612650439255016
9981440 41 18335427871900446427

> <PUBCHEM_SHAPE_MULTIPOLES>
558.39
18.15
3.52
1.15
8.33
0.09
0.22
7.85
4.9
-2.25
-0.87
1.72
-0.18
-0.95

> <PUBCHEM_SHAPE_SELFOVERLAP>
1206.378

> <PUBCHEM_SHAPE_VOLUME>
301.4

> <PUBCHEM_COORDINATE_TYPE>
2
5
10

$$$$
