6006
  -OEChem-01232513023D

 57 59  0     1  0  0  0  0  0999 V2000
    5.2605    2.3727    0.5719 O   0  0  0  0  0  0  0  0  0  0  0  0
    3.4107    0.1935    3.2949 O   0  0  0  0  0  0  0  0  0  0  0  0
   -3.6822    0.9490   -2.3310 O   0  0  0  0  0  0  0  0  0  0  0  0
   -7.7095    2.6625    0.1695 O   0  0  0  0  0  0  0  0  0  0  0  0
   -5.9769    2.3497    1.6014 O   0  0  0  0  0  0  0  0  0  0  0  0
   -8.0624   -2.9867    0.9009 O   0  0  0  0  0  0  0  0  0  0  0  0
   -8.3143   -2.3731   -1.2688 O   0  0  0  0  0  0  0  0  0  0  0  0
    4.4908   -0.3413    1.2786 N   0  0  0  0  0  0  0  0  0  0  0  0
    5.4162   -2.2312   -0.5260 N   0  0  0  0  0  0  0  0  0  0  0  0
    1.4958   -0.6785    0.9760 N   0  0  0  0  0  0  0  0  0  0  0  0
    6.7933   -0.5490   -1.5485 N   0  0  0  0  0  0  0  0  0  0  0  0
    6.9827    1.6471   -0.7325 N   0  0  0  0  0  0  0  0  0  0  0  0
   -4.5828    0.9145   -0.1945 N   0  0  0  0  0  0  0  0  0  0  0  0
    8.4131    0.8342   -2.4139 N   0  0  0  0  0  0  0  0  0  0  0  0
    3.7334   -1.6070    1.1125 C   0  0  2  0  0  0  0  0  0  0  0  0
    4.6299   -2.7290    0.5775 C   0  0  0  0  0  0  0  0  0  0  0  0
    2.5011   -1.3821    0.2284 C   0  0  0  0  0  0  0  0  0  0  0  0
    5.4204    0.0013    0.2847 C   0  0  0  0  0  0  0  0  0  0  0  0
    5.8627   -0.9252   -0.6046 C   0  0  0  0  0  0  0  0  0  0  0  0
    5.8798    1.4347    0.0790 C   0  0  0  0  0  0  0  0  0  0  0  0
    4.2198    0.4359    2.4036 C   0  0  0  0  0  0  0  0  0  0  0  0
    0.2555   -0.3199    0.4621 C   0  0  0  0  0  0  0  0  0  0  0  0
    7.3736    0.6926   -1.5325 C   0  0  0  0  0  0  0  0  0  0  0  0
   -0.6593    0.3645    1.2623 C   0  0  0  0  0  0  0  0  0  0  0  0
   -0.0741   -0.6430   -0.8543 C   0  0  0  0  0  0  0  0  0  0  0  0
   -5.9332    1.2603   -0.5763 C   0  0  1  0  0  0  0  0  0  0  0  0
   -6.7857    0.0314   -0.9156 C   0  0  0  0  0  0  0  0  0  0  0  0
   -2.2335    0.4024   -0.5700 C   0  0  0  0  0  0  0  0  0  0  0  0
   -1.9037    0.7256    0.7462 C   0  0  0  0  0  0  0  0  0  0  0  0
   -1.3186   -0.2818   -1.3703 C   0  0  0  0  0  0  0  0  0  0  0  0
   -3.5310    0.7795   -1.1081 C   0  0  0  0  0  0  0  0  0  0  0  0
   -7.0106   -0.9630    0.2306 C   0  0  0  0  0  0  0  0  0  0  0  0
   -6.5146    2.1224    0.5253 C   0  0  0  0  0  0  0  0  0  0  0  0
   -7.8468   -2.1631   -0.1582 C   0  0  0  0  0  0  0  0  0  0  0  0
    3.3878   -1.9352    2.1026 H   0  0  0  0  0  0  0  0  0  0  0  0
    5.3165   -3.0558    1.3679 H   0  0  0  0  0  0  0  0  0  0  0  0
    4.0473   -3.6037    0.2702 H   0  0  0  0  0  0  0  0  0  0  0  0
    2.1003   -2.3556   -0.0793 H   0  0  0  0  0  0  0  0  0  0  0  0
    2.7731   -0.8238   -0.6753 H   0  0  0  0  0  0  0  0  0  0  0  0
    5.8162   -2.8895   -1.1859 H   0  0  0  0  0  0  0  0  0  0  0  0
    1.6785   -0.4395    1.9444 H   0  0  0  0  0  0  0  0  0  0  0  0
    7.1137   -1.2716   -2.1835 H   0  0  0  0  0  0  0  0  0  0  0  0
    4.8710    1.3133    2.4983 H   0  0  0  0  0  0  0  0  0  0  0  0
   -5.8642    1.8956   -1.4684 H   0  0  0  0  0  0  0  0  0  0  0  0
   -0.4119    0.6287    2.2874 H   0  0  0  0  0  0  0  0  0  0  0  0
    0.6073   -1.1760   -1.5108 H   0  0  0  0  0  0  0  0  0  0  0  0
   -7.7656    0.3661   -1.2804 H   0  0  0  0  0  0  0  0  0  0  0  0
   -6.3192   -0.5031   -1.7538 H   0  0  0  0  0  0  0  0  0  0  0  0
   -2.5731    1.2848    1.3934 H   0  0  0  0  0  0  0  0  0  0  0  0
   -1.5583   -0.5468   -2.3969 H   0  0  0  0  0  0  0  0  0  0  0  0
   -4.4319    0.6879    0.7830 H   0  0  0  0  0  0  0  0  0  0  0  0
   -6.0452   -1.3372    0.5888 H   0  0  0  0  0  0  0  0  0  0  0  0
   -7.5214   -0.4583    1.0580 H   0  0  0  0  0  0  0  0  0  0  0  0
    8.6988    0.0744   -3.0219 H   0  0  0  0  0  0  0  0  0  0  0  0
    8.9248    1.7069   -2.4865 H   0  0  0  0  0  0  0  0  0  0  0  0
   -8.0776    3.2337    0.8771 H   0  0  0  0  0  0  0  0  0  0  0  0
   -8.6192   -3.7567    0.6573 H   0  0  0  0  0  0  0  0  0  0  0  0
  1 20  2  0  0  0  0
  2 21  2  0  0  0  0
  3 31  2  0  0  0  0
  4 33  1  0  0  0  0
  4 56  1  0  0  0  0
  5 33  2  0  0  0  0
  6 34  1  0  0  0  0
  6 57  1  0  0  0  0
  7 34  2  0  0  0  0
  8 15  1  0  0  0  0
  8 18  1  0  0  0  0
  8 21  1  0  0  0  0
  9 16  1  0  0  0  0
  9 19  1  0  0  0  0
  9 40  1  0  0  0  0
 10 17  1  0  0  0  0
 10 22  1  0  0  0  0
 10 41  1  0  0  0  0
 11 19  1  0  0  0  0
 11 23  1  0  0  0  0
 11 42  1  0  0  0  0
 12 20  1  0  0  0  0
 12 23  2  0  0  0  0
 13 26  1  0  0  0  0
 13 31  1  0  0  0  0
 13 51  1  0  0  0  0
 14 23  1  0  0  0  0
 14 54  1  0  0  0  0
 14 55  1  0  0  0  0
 15 16  1  0  0  0  0
 15 17  1  0  0  0  0
 15 35  1  0  0  0  0
 16 36  1  0  0  0  0
 16 37  1  0  0  0  0
 17 38  1  0  0  0  0
 17 39  1  0  0  0  0
 18 19  2  0  0  0  0
 18 20  1  0  0  0  0
 21 43  1  0  0  0  0
 22 24  2  0  0  0  0
 22 25  1  0  0  0  0
 24 29  1  0  0  0  0
 24 45  1  0  0  0  0
 25 30  2  0  0  0  0
 25 46  1  0  0  0  0
 26 27  1  0  0  0  0
 26 33  1  0  0  0  0
 26 44  1  0  0  0  0
 27 32  1  0  0  0  0
 27 47  1  0  0  0  0
 27 48  1  0  0  0  0
 28 29  2  0  0  0  0
 28 30  1  0  0  0  0
 28 31  1  0  0  0  0
 29 49  1  0  0  0  0
 30 50  1  0  0  0  0
 32 34  1  0  0  0  0
 32 52  1  0  0  0  0
 32 53  1  0  0  0  0
M  END
> <PUBCHEM_COMPOUND_CID>
6006

> <PUBCHEM_CONFORMER_RMSD>
1.2

> <PUBCHEM_CONFORMER_DIVERSEORDER>
2
57
65
42
11
31
56
80
39
33
85
25
46
74
49
79
70
69
62
15
48
19
81
54
37
21
47
66
28
59
78
52
32
83
51
6
75
55
29
41
58
77
9
60
82
40
84
71
76
14
61
35
53
38
34
10
64
67
68
73
8
30
23
63
13
72
43
45
12
17
27
22
50
44
18
24
16
26
5
36
4
20
3
7
1

> <PUBCHEM_MMFF94_PARTIAL_CHARGES>
46
1 -0.57
10 -0.87
11 -0.55
12 -0.66
13 -0.73
14 -0.85
15 0.3
16 0.37
17 0.37
18 0.12
19 0.2
2 -0.57
20 0.77
21 0.57
22 0.1
23 0.55
24 -0.15
25 -0.15
26 0.36
28 0.09
29 -0.15
3 -0.57
30 -0.15
31 0.54
32 0.06
33 0.66
34 0.66
4 -0.65
40 0.4
41 0.4
42 0.4
43 0.06
45 0.15
46 0.15
49 0.15
5 -0.57
50 0.15
51 0.37
54 0.4
55 0.4
56 0.5
57 0.5
6 -0.65
7 -0.57
8 -0.47
9 -0.87

> <PUBCHEM_EFFECTIVE_ROTOR_COUNT>
11.8

> <PUBCHEM_PHARMACOPHORE_FEATURES>
20
1 1 acceptor
1 10 cation
1 10 donor
1 11 donor
1 12 donor
1 13 donor
1 14 donor
1 2 acceptor
1 3 acceptor
1 4 acceptor
1 5 acceptor
1 6 acceptor
1 7 acceptor
1 9 cation
1 9 donor
3 4 5 33 anion
3 6 7 34 anion
6 11 12 18 19 20 23 rings
6 22 24 25 28 29 30 rings
6 8 9 15 16 18 19 rings

> <PUBCHEM_HEAVY_ATOM_COUNT>
34

> <PUBCHEM_ATOM_DEF_STEREO_COUNT>
1

> <PUBCHEM_ATOM_UDEF_STEREO_COUNT>
1

> <PUBCHEM_BOND_DEF_STEREO_COUNT>
0

> <PUBCHEM_BOND_UDEF_STEREO_COUNT>
0

> <PUBCHEM_ISOTOPIC_ATOM_COUNT>
0

> <PUBCHEM_COMPONENT_COUNT>
1

> <PUBCHEM_CACTVS_TAUTO_COUNT>
27

> <PUBCHEM_CONFORMER_ID>
0000177600000002

> <PUBCHEM_MMFF94_ENERGY>
104.5946

> <PUBCHEM_FEATURE_SELFOVERLAP>
101.806

> <PUBCHEM_SHAPE_FINGERPRINT>
10 15 15791739594071769940
11007060 377 17749389261475860907
11115154 58 14620799327791168258
11315181 36 18333731309233063829
11475781 23 10665222619199864043
14347424 109 10807927172649398282
14444916 359 16056604270207110911
14856354 85 17917988413291896823
15183329 4 15195563485764376337
1577012 14 18333448716826520669
20105231 36 17131837572744965983
21781051 124 17346881169444324358
23389318 12 17603581967680633327
23424782 7 18333732446450182075
24771293 8 17240204330592207268
34797466 226 17895478020904042206
394071 54 17458632215988187620
3986486 107 18341628010149485676
4073 2 18411139092239187155
4173938 306 13767920243223804987
439807 62 14620802592039717780
445580 167 17894348891065833359
4625314 4 18190176793981682887
4760202 70 18195240251555046679
5381727 24 18040992952408381674
6126387 218 9583522001656531278
9962374 69 16733527335721951858

> <PUBCHEM_SHAPE_MULTIPOLES>
623.75
28.7
2.59
1.98
19.79
0.73
0.54
0.31
-7.63
3.4
0.32
-2.57
-0.4
-1.45

> <PUBCHEM_SHAPE_SELFOVERLAP>
1324.716

> <PUBCHEM_SHAPE_VOLUME>
341.7

> <PUBCHEM_COORDINATE_TYPE>
2
5
10

$$$$
