446556
  -OEChem-01232513023D

 52 54  0     1  0  0  0  0  0999 V2000
   -1.5836   -0.1672   -1.6859 O   0  0  0  0  0  0  0  0  0  0  0  0
    2.1059    1.4266    2.4459 O   0  0  0  0  0  0  0  0  0  0  0  0
    6.3921    1.3525   -0.2059 O   0  0  0  0  0  0  0  0  0  0  0  0
    4.6802    2.0735   -1.5097 O   0  0  0  0  0  0  0  0  0  0  0  0
    3.9938   -3.6576   -1.5173 O   0  0  0  0  0  0  0  0  0  0  0  0
    4.5677   -3.5148    0.6731 O   0  0  0  0  0  0  0  0  0  0  0  0
   -5.3645   -0.9814    0.7640 N   0  0  0  0  0  0  0  0  0  0  0  0
    2.8258    1.2440    0.2487 N   0  0  0  0  0  0  0  0  0  0  0  0
   -3.6361   -2.6620    0.7599 N   0  0  0  0  0  0  0  0  0  0  0  0
   -1.6850   -2.1716   -0.5410 N   0  0  0  0  0  0  0  0  0  0  0  0
   -1.9013   -4.1829    0.6672 N   0  0  0  0  0  0  0  0  0  0  0  0
   -4.1110    1.7517   -1.3836 C   0  0  0  0  0  0  0  0  0  0  0  0
   -4.3677    0.5121   -0.5749 C   0  0  0  0  0  0  0  0  0  0  0  0
   -3.4082    2.8689   -0.5857 C   0  0  0  0  0  0  0  0  0  0  0  0
   -3.5093   -0.6020   -0.4257 C   0  0  0  0  0  0  0  0  0  0  0  0
   -2.0388    2.5135   -0.1146 C   0  0  0  0  0  0  0  0  0  0  0  0
   -4.1584   -1.4835    0.3973 C   0  0  0  0  0  0  0  0  0  0  0  0
   -5.5060    0.2528    0.1696 C   0  0  0  0  0  0  0  0  0  0  0  0
    4.1841    0.8655    0.5460 C   0  0  1  0  0  0  0  0  0  0  0  0
    4.3582   -0.6513    0.6892 C   0  0  0  0  0  0  0  0  0  0  0  0
   -1.8651    1.9099    1.1310 C   0  0  0  0  0  0  0  0  0  0  0  0
   -0.9318    2.7855   -0.9184 C   0  0  0  0  0  0  0  0  0  0  0  0
    0.5228    1.8502    0.7687 C   0  0  0  0  0  0  0  0  0  0  0  0
   -2.1909   -0.9324   -0.9460 C   0  0  0  0  0  0  0  0  0  0  0  0
    4.0508   -1.4806   -0.5642 C   0  0  0  0  0  0  0  0  0  0  0  0
   -0.5843    1.5783    1.5726 C   0  0  0  0  0  0  0  0  0  0  0  0
    0.3491    2.4539   -0.4766 C   0  0  0  0  0  0  0  0  0  0  0  0
    1.8868    1.4966    1.2394 C   0  0  0  0  0  0  0  0  0  0  0  0
   -2.3757   -2.9633    0.2554 C   0  0  0  0  0  0  0  0  0  0  0  0
    5.0747    1.4861   -0.5106 C   0  0  0  0  0  0  0  0  0  0  0  0
    4.2257   -2.9710   -0.3677 C   0  0  0  0  0  0  0  0  0  0  0  0
   -3.5244    1.4993   -2.2751 H   0  0  0  0  0  0  0  0  0  0  0  0
   -5.0703    2.1386   -1.7508 H   0  0  0  0  0  0  0  0  0  0  0  0
   -3.3551    3.7680   -1.2136 H   0  0  0  0  0  0  0  0  0  0  0  0
   -4.0286    3.1543    0.2746 H   0  0  0  0  0  0  0  0  0  0  0  0
   -6.4032    0.8340    0.3312 H   0  0  0  0  0  0  0  0  0  0  0  0
    4.4536    1.3394    1.4987 H   0  0  0  0  0  0  0  0  0  0  0  0
    3.7176   -1.0064    1.5075 H   0  0  0  0  0  0  0  0  0  0  0  0
    5.3891   -0.8648    1.0006 H   0  0  0  0  0  0  0  0  0  0  0  0
   -6.0430   -1.4277    1.3663 H   0  0  0  0  0  0  0  0  0  0  0  0
   -2.7168    1.6979    1.7720 H   0  0  0  0  0  0  0  0  0  0  0  0
   -1.0541    3.2591   -1.8888 H   0  0  0  0  0  0  0  0  0  0  0  0
    2.5510    1.2416   -0.7280 H   0  0  0  0  0  0  0  0  0  0  0  0
   -4.1162   -3.3161    1.3698 H   0  0  0  0  0  0  0  0  0  0  0  0
    3.0139   -1.3096   -0.8743 H   0  0  0  0  0  0  0  0  0  0  0  0
    4.7168   -1.1740   -1.3783 H   0  0  0  0  0  0  0  0  0  0  0  0
   -0.4700    1.1052    2.5443 H   0  0  0  0  0  0  0  0  0  0  0  0
    1.1854    2.7104   -1.1200 H   0  0  0  0  0  0  0  0  0  0  0  0
   -2.4430   -4.7820    1.2805 H   0  0  0  0  0  0  0  0  0  0  0  0
   -0.9924   -4.5201    0.3692 H   0  0  0  0  0  0  0  0  0  0  0  0
    6.9676    1.7688   -0.8824 H   0  0  0  0  0  0  0  0  0  0  0  0
    4.1235   -4.6227   -1.3988 H   0  0  0  0  0  0  0  0  0  0  0  0
  1 24  2  0  0  0  0
  2 28  2  0  0  0  0
  3 30  1  0  0  0  0
  3 51  1  0  0  0  0
  4 30  2  0  0  0  0
  5 31  1  0  0  0  0
  5 52  1  0  0  0  0
  6 31  2  0  0  0  0
  7 17  1  0  0  0  0
  7 18  1  0  0  0  0
  7 40  1  0  0  0  0
  8 19  1  0  0  0  0
  8 28  1  0  0  0  0
  8 43  1  0  0  0  0
  9 17  1  0  0  0  0
  9 29  1  0  0  0  0
  9 44  1  0  0  0  0
 10 24  1  0  0  0  0
 10 29  2  0  0  0  0
 11 29  1  0  0  0  0
 11 49  1  0  0  0  0
 11 50  1  0  0  0  0
 12 13  1  0  0  0  0
 12 14  1  0  0  0  0
 12 32  1  0  0  0  0
 12 33  1  0  0  0  0
 13 15  1  0  0  0  0
 13 18  2  0  0  0  0
 14 16  1  0  0  0  0
 14 34  1  0  0  0  0
 14 35  1  0  0  0  0
 15 17  2  0  0  0  0
 15 24  1  0  0  0  0
 16 21  2  0  0  0  0
 16 22  1  0  0  0  0
 18 36  1  0  0  0  0
 19 20  1  0  0  0  0
 19 30  1  0  0  0  0
 19 37  1  0  0  0  0
 20 25  1  0  0  0  0
 20 38  1  0  0  0  0
 20 39  1  0  0  0  0
 21 26  1  0  0  0  0
 21 41  1  0  0  0  0
 22 27  2  0  0  0  0
 22 42  1  0  0  0  0
 23 26  2  0  0  0  0
 23 27  1  0  0  0  0
 23 28  1  0  0  0  0
 25 31  1  0  0  0  0
 25 45  1  0  0  0  0
 25 46  1  0  0  0  0
 26 47  1  0  0  0  0
 27 48  1  0  0  0  0
M  END
> <PUBCHEM_COMPOUND_CID>
446556

> <PUBCHEM_CONFORMER_RMSD>
1

> <PUBCHEM_CONFORMER_DIVERSEORDER>
1
86
112
85
74
48
51
142
91
70
62
93
72
73
107
53
4
121
11
42
124
6
100
61
132
116
21
19
141
177
122
120
5
92
97
41
82
150
175
71
111
133
113
29
7
129
14
131
110
153
90
57
44
105
84
58
148
160
164
22
130
46
68
123
170
179
181
125
158
76
24
127
2
56
96
145
169
155
12
178
67
33
143
151
157
108
28
36
79
20
54
99
137
119
167
104
65
63
183
180
43
156
88
3
59
165
55
8
94
32
77
89
37
38
26
172
34
98
126
138
117
50
52
174
171
101
64
114
115
152
168
49
176
182
27
30
66
60
140
23
9
87
166
102
31
83
13
144
10
135
15
163
47
75
118
128
78
159
149
109
147
35
134
40
17
18
139
80
81
16
161
95
39
173
69
162
103
45
106
154
25
136
146

> <PUBCHEM_MMFF94_PARTIAL_CHARGES>
42
1 -0.57
10 -0.66
11 -0.85
12 0.18
13 -0.18
14 0.14
15 -0.09
16 -0.14
17 -0.07
18 -0.3
19 0.36
2 -0.57
21 -0.15
22 -0.15
23 0.09
24 0.87
25 0.06
26 -0.15
27 -0.15
28 0.54
29 0.55
3 -0.65
30 0.66
31 0.66
36 0.15
4 -0.57
40 0.27
41 0.15
42 0.15
43 0.37
44 0.4
47 0.15
48 0.15
49 0.4
5 -0.65
50 0.4
51 0.5
52 0.5
6 -0.57
7 0.03
8 -0.73
9 -0.53

> <PUBCHEM_EFFECTIVE_ROTOR_COUNT>
10

> <PUBCHEM_PHARMACOPHORE_FEATURES>
17
1 1 acceptor
1 10 donor
1 11 donor
1 2 acceptor
1 3 acceptor
1 4 acceptor
1 5 acceptor
1 6 acceptor
1 7 cation
1 7 donor
1 8 donor
1 9 donor
3 3 4 30 anion
3 5 6 31 anion
5 7 13 15 17 18 rings
6 16 21 22 23 26 27 rings
6 9 10 15 17 24 29 rings

> <PUBCHEM_HEAVY_ATOM_COUNT>
31

> <PUBCHEM_ATOM_DEF_STEREO_COUNT>
1

> <PUBCHEM_ATOM_UDEF_STEREO_COUNT>
0

> <PUBCHEM_BOND_DEF_STEREO_COUNT>
0

> <PUBCHEM_BOND_UDEF_STEREO_COUNT>
0

> <PUBCHEM_ISOTOPIC_ATOM_COUNT>
0

> <PUBCHEM_COMPONENT_COUNT>
1

> <PUBCHEM_CACTVS_TAUTO_COUNT>
34

> <PUBCHEM_CONFORMER_ID>
0006D05C00000001

> <PUBCHEM_MMFF94_ENERGY>
68.1625

> <PUBCHEM_FEATURE_SELFOVERLAP>
86.647

> <PUBCHEM_SHAPE_FINGERPRINT>
10462674 296 17550101906568065678
11135609 12 18337943499207838298
11315621 136 18269845238083478846
12422481 6 18057622979324824699
12633257 1 16486694778650926181
12788726 201 17775292624990307608
13383661 66 17553521302316068638
13402501 40 18342739606923506591
14251757 5 18263362645552061065
14617045 38 18343305902619372180
14910302 57 18263915562625837860
15537594 2 17988923405351301132
15799311 1 18341348729014878496
16112460 7 18200606782488428177
17627616 140 17327182044001024154
19958102 18 18335412427092223461
20775530 9 18341887438663231686
23559900 14 18268420244663802368
3737641 26 18342747351108341230
5309563 4 17834111222867533198
56633871 153 18194969763189627051
6433294 58 18413669098095155962
6437827 68 18339075978297605298

> <PUBCHEM_SHAPE_MULTIPOLES>
577.84
12.9
4.79
1.43
9.95
4.19
-0.21
3.17
1.61
1.16
0.23
0.36
-0.43
1.31

> <PUBCHEM_SHAPE_SELFOVERLAP>
1244.678

> <PUBCHEM_SHAPE_VOLUME>
312.8

> <PUBCHEM_COORDINATE_TYPE>
2
5
10

$$$$
