57515973
  -OEChem-01232513023D

 72 73  0     1  0  0  0  0  0999 V2000
    2.3572    2.2287    2.9599 S   0  0  0  0  0  0  0  0  0  0  0  0
    1.7608    0.2803    3.1915 S   0  0  0  0  0  0  0  0  0  0  0  0
   -1.9326   -1.5767    0.5757 O   0  0  0  0  0  0  0  0  0  0  0  0
    2.8431    1.0163   -2.5871 O   0  0  0  0  0  0  0  0  0  0  0  0
    1.6525   -2.1184    0.7284 O   0  0  0  0  0  0  0  0  0  0  0  0
   -3.8030   -2.6046   -0.2949 O   0  0  0  0  0  0  0  0  0  0  0  0
    1.3090    4.0253    0.2227 O   0  0  0  0  0  0  0  0  0  0  0  0
   -1.7261    0.6067   -1.9549 O   0  0  0  0  0  0  0  0  0  0  0  0
    1.5153   -1.8719   -1.5694 N   0  0  0  0  0  0  0  0  0  0  0  0
    2.6317    0.6638   -0.3057 N   0  0  0  0  0  0  0  0  0  0  0  0
   -2.8274    0.8625    0.0869 N   0  0  0  0  0  0  0  0  0  0  0  0
    0.3062    2.0158   -0.4102 N   0  0  0  0  0  0  0  0  0  0  0  0
    2.8118   -1.2566   -1.8327 C   0  0  2  0  0  0  0  0  0  0  0  0
    3.9916   -1.9106   -1.1211 C   0  0  0  0  0  0  0  0  0  0  0  0
   -3.8076   -0.2054   -0.0437 C   0  0  1  0  0  0  0  0  0  0  0  0
   -4.6887   -0.0458   -1.2782 C   0  0  0  0  0  0  0  0  0  0  0  0
    2.7582    0.2512   -1.6248 C   0  0  0  0  0  0  0  0  0  0  0  0
    5.3149   -1.3162   -1.6048 C   0  0  0  0  0  0  0  0  0  0  0  0
    3.9808   -3.4255   -1.3313 C   0  0  0  0  0  0  0  0  0  0  0  0
   -1.2594   -2.8420    0.7489 C   0  0  1  0  0  0  0  0  0  0  0  0
   -0.2732   -3.0373   -0.4171 C   0  0  0  0  0  0  0  0  0  0  0  0
    2.6985    2.0707    0.0791 C   0  0  2  0  0  0  0  0  0  0  0  0
    1.0469   -2.2729   -0.3279 C   0  0  0  0  0  0  0  0  0  0  0  0
   -3.1864   -1.5948    0.0308 C   0  0  0  0  0  0  0  0  0  0  0  0
   -4.8639    1.4309   -1.6248 C   0  0  0  0  0  0  0  0  0  0  0  0
   -6.0455   -0.7108   -1.0588 C   0  0  0  0  0  0  0  0  0  0  0  0
    3.3840    2.2584    1.4406 C   0  0  0  0  0  0  0  0  0  0  0  0
   -0.6458   -3.0034    2.1181 C   0  0  0  0  0  0  0  0  0  0  0  0
    1.3647    2.8230   -0.0312 C   0  0  0  0  0  0  0  0  0  0  0  0
   -1.9056    1.1933   -0.8919 C   0  0  0  0  0  0  0  0  0  0  0  0
   -1.0274    2.3312   -0.5008 C   0  0  0  0  0  0  0  0  0  0  0  0
   -0.4769   -2.1306    3.1240 C   0  0  0  0  0  0  0  0  0  0  0  0
   -0.8695   -0.6845    3.2014 C   0  0  0  0  0  0  0  0  0  0  0  0
    0.0771    0.2827    2.4839 C   0  0  0  0  0  0  0  0  0  0  0  0
   -1.6054    3.5197   -0.2880 C   0  0  0  0  0  0  0  0  0  0  0  0
   -0.8597    4.7473    0.1076 C   0  0  0  0  0  0  0  0  0  0  0  0
    2.9529   -1.3992   -2.9139 H   0  0  0  0  0  0  0  0  0  0  0  0
    3.9459   -1.7288   -0.0412 H   0  0  0  0  0  0  0  0  0  0  0  0
   -4.4215   -0.1140    0.8624 H   0  0  0  0  0  0  0  0  0  0  0  0
   -4.2198   -0.5346   -2.1425 H   0  0  0  0  0  0  0  0  0  0  0  0
    0.9213   -2.0239   -2.3791 H   0  0  0  0  0  0  0  0  0  0  0  0
    5.4353   -1.4395   -2.6866 H   0  0  0  0  0  0  0  0  0  0  0  0
    6.1618   -1.8109   -1.1165 H   0  0  0  0  0  0  0  0  0  0  0  0
    5.3879   -0.2490   -1.3729 H   0  0  0  0  0  0  0  0  0  0  0  0
    3.9858   -3.6773   -2.3975 H   0  0  0  0  0  0  0  0  0  0  0  0
    3.1142   -3.9083   -0.8724 H   0  0  0  0  0  0  0  0  0  0  0  0
    4.8701   -3.8805   -0.8806 H   0  0  0  0  0  0  0  0  0  0  0  0
   -1.9992   -3.6498    0.6772 H   0  0  0  0  0  0  0  0  0  0  0  0
   -0.7782   -2.7763   -1.3551 H   0  0  0  0  0  0  0  0  0  0  0  0
    0.0026   -4.0979   -0.4829 H   0  0  0  0  0  0  0  0  0  0  0  0
    3.3493    2.5465   -0.6679 H   0  0  0  0  0  0  0  0  0  0  0  0
    2.4742   -0.0253    0.4230 H   0  0  0  0  0  0  0  0  0  0  0  0
   -3.9864    1.8771   -2.0961 H   0  0  0  0  0  0  0  0  0  0  0  0
   -5.6726    1.5498   -2.3564 H   0  0  0  0  0  0  0  0  0  0  0  0
   -5.1420    2.0264   -0.7479 H   0  0  0  0  0  0  0  0  0  0  0  0
   -6.6797   -0.5866   -1.9439 H   0  0  0  0  0  0  0  0  0  0  0  0
   -5.9674   -1.7846   -0.8752 H   0  0  0  0  0  0  0  0  0  0  0  0
   -6.5745   -0.2616   -0.2108 H   0  0  0  0  0  0  0  0  0  0  0  0
   -2.8388    1.3929    0.9537 H   0  0  0  0  0  0  0  0  0  0  0  0
    4.2129    1.5519    1.5647 H   0  0  0  0  0  0  0  0  0  0  0  0
    3.8362    3.2578    1.4460 H   0  0  0  0  0  0  0  0  0  0  0  0
   -0.2668   -4.0097    2.3029 H   0  0  0  0  0  0  0  0  0  0  0  0
    0.5250    1.0439   -0.6139 H   0  0  0  0  0  0  0  0  0  0  0  0
    0.0178   -2.5126    4.0168 H   0  0  0  0  0  0  0  0  0  0  0  0
   -1.8845   -0.5557    2.8098 H   0  0  0  0  0  0  0  0  0  0  0  0
   -0.9451   -0.4047    4.2607 H   0  0  0  0  0  0  0  0  0  0  0  0
   -0.3482    1.2890    2.5599 H   0  0  0  0  0  0  0  0  0  0  0  0
    0.1491    0.0224    1.4270 H   0  0  0  0  0  0  0  0  0  0  0  0
   -2.6811    3.6291   -0.4078 H   0  0  0  0  0  0  0  0  0  0  0  0
   -0.2236    5.1446   -0.6885 H   0  0  0  0  0  0  0  0  0  0  0  0
   -1.6220    5.5378    0.1962 H   0  0  0  0  0  0  0  0  0  0  0  0
   -0.4668    4.7065    1.1275 H   0  0  0  0  0  0  0  0  0  0  0  0
  1  2  1  0  0  0  0
  1 27  1  0  0  0  0
  2 34  1  0  0  0  0
  3 20  1  0  0  0  0
  3 24  1  0  0  0  0
  4 17  2  0  0  0  0
  5 23  2  0  0  0  0
  6 24  2  0  0  0  0
  7 29  2  0  0  0  0
  8 30  2  0  0  0  0
  9 13  1  0  0  0  0
  9 23  1  0  0  0  0
  9 41  1  0  0  0  0
 10 17  1  0  0  0  0
 10 22  1  0  0  0  0
 10 52  1  0  0  0  0
 11 15  1  0  0  0  0
 11 30  1  0  0  0  0
 11 59  1  0  0  0  0
 12 29  1  0  0  0  0
 12 31  1  0  0  0  0
 12 63  1  0  0  0  0
 13 14  1  0  0  0  0
 13 17  1  0  0  0  0
 13 37  1  0  0  0  0
 14 18  1  0  0  0  0
 14 19  1  0  0  0  0
 14 38  1  0  0  0  0
 15 16  1  0  0  0  0
 15 24  1  0  0  0  0
 15 39  1  0  0  0  0
 16 25  1  0  0  0  0
 16 26  1  0  0  0  0
 16 40  1  0  0  0  0
 18 42  1  0  0  0  0
 18 43  1  0  0  0  0
 18 44  1  0  0  0  0
 19 45  1  0  0  0  0
 19 46  1  0  0  0  0
 19 47  1  0  0  0  0
 20 21  1  0  0  0  0
 20 28  1  0  0  0  0
 20 48  1  0  0  0  0
 21 23  1  0  0  0  0
 21 49  1  0  0  0  0
 21 50  1  0  0  0  0
 22 27  1  0  0  0  0
 22 29  1  0  0  0  0
 22 51  1  0  0  0  0
 25 53  1  0  0  0  0
 25 54  1  0  0  0  0
 25 55  1  0  0  0  0
 26 56  1  0  0  0  0
 26 57  1  0  0  0  0
 26 58  1  0  0  0  0
 27 60  1  0  0  0  0
 27 61  1  0  0  0  0
 28 32  2  0  0  0  0
 28 62  1  0  0  0  0
 30 31  1  0  0  0  0
 31 35  2  0  0  0  0
 32 33  1  0  0  0  0
 32 64  1  0  0  0  0
 33 34  1  0  0  0  0
 33 65  1  0  0  0  0
 33 66  1  0  0  0  0
 34 67  1  0  0  0  0
 34 68  1  0  0  0  0
 35 36  1  0  0  0  0
 35 69  1  0  0  0  0
 36 70  1  0  0  0  0
 36 71  1  0  0  0  0
 36 72  1  0  0  0  0
M  END
> <PUBCHEM_COMPOUND_CID>
57515973

> <PUBCHEM_CONFORMER_RMSD>
0.8

> <PUBCHEM_CONFORMER_DIVERSEORDER>
4
2
3
1
5

> <PUBCHEM_MMFF94_PARTIAL_CHARGES>
37
1 -0.23
10 -0.73
11 -0.73
12 -0.54
13 0.36
15 0.36
17 0.57
2 -0.23
20 0.42
21 0.06
22 0.36
23 0.57
24 0.66
27 0.23
28 -0.29
29 0.57
3 -0.43
30 0.62
31 0.12
32 -0.29
33 0.14
34 0.23
35 -0.29
36 0.14
4 -0.57
41 0.37
5 -0.57
52 0.37
59 0.37
6 -0.57
62 0.15
63 0.37
64 0.15
69 0.15
7 -0.57
8 -0.57
9 -0.73

> <PUBCHEM_EFFECTIVE_ROTOR_COUNT>
4.6

> <PUBCHEM_PHARMACOPHORE_FEATURES>
12
1 10 donor
1 11 donor
1 12 donor
1 36 hydrophobe
1 4 acceptor
1 5 acceptor
1 6 acceptor
1 7 acceptor
1 8 acceptor
1 9 donor
3 14 18 19 hydrophobe
3 16 25 26 hydrophobe

> <PUBCHEM_HEAVY_ATOM_COUNT>
36

> <PUBCHEM_ATOM_DEF_STEREO_COUNT>
4

> <PUBCHEM_ATOM_UDEF_STEREO_COUNT>
0

> <PUBCHEM_BOND_DEF_STEREO_COUNT>
2

> <PUBCHEM_BOND_UDEF_STEREO_COUNT>
0

> <PUBCHEM_ISOTOPIC_ATOM_COUNT>
0

> <PUBCHEM_COMPONENT_COUNT>
1

> <PUBCHEM_CACTVS_TAUTO_COUNT>
144

> <PUBCHEM_CONFORMER_ID>
036D9FC500000004

> <PUBCHEM_MMFF94_ENERGY>
109.0475

> <PUBCHEM_FEATURE_SELFOVERLAP>
60.907

> <PUBCHEM_SHAPE_FINGERPRINT>
10032420 55 18117838794081546404
10675989 125 18261664884036533525
10816530 23 17480011334494849489
11828532 37 18114740559652159275
12156800 1 17977085882873133474
12788726 201 18263373499235299710
13402501 40 18411421751909050718
13726171 33 17536337043132465493
13947947 73 17203615861529252845
14251757 17 18340207496227470879
14725015 67 18337942394525367563
17093844 170 18339636840844478508
17909252 39 18342459209756824966
1813 80 14261353561648536787
19315092 285 16844998109030074765
19319366 153 17321284306810649097
19930381 70 18196095658183830103
20642791 35 18267292137539512757
20764821 26 18266473177085136084
20775438 99 18055890303545400719
23419403 2 17345173542350694690
23559900 14 18412256234085286285
27425 322 15214448813299364967
35225 105 16805612511432912826
460360 51 17317582307670190229
513532 50 18198879527389097543
6376802 137 17914336776083258498
6823239 73 18411409601262064053

> <PUBCHEM_SHAPE_MULTIPOLES>
693.42
8.4
5.19
3.09
5.66
2.89
-2.82
-2.96
6.1
-1.31
-0.34
-1.92
-0.59
2.72

> <PUBCHEM_SHAPE_SELFOVERLAP>
1384.824

> <PUBCHEM_SHAPE_VOLUME>
406.4

> <PUBCHEM_COORDINATE_TYPE>
2
5
10

$$$$
