44819241
  -OEChem-01232513023D

 42 46  0     1  0  0  0  0  0999 V2000
    4.6489   -3.4505    0.1502 F   0  0  0  0  0  0  0  0  0  0  0  0
   -5.9856   -2.2035   -0.5084 F   0  0  0  0  0  0  0  0  0  0  0  0
    5.2751    1.5652   -0.2483 O   0  0  0  0  0  0  0  0  0  0  0  0
    0.2315   -1.7891    0.4524 N   0  0  0  0  0  0  0  0  0  0  0  0
    1.7777    2.0594   -0.5144 N   0  0  0  0  0  0  0  0  0  0  0  0
   -1.9150    2.5045   -0.5749 N   0  0  0  0  0  0  0  0  0  0  0  0
    3.1261    2.3392   -0.4907 N   0  0  0  0  0  0  0  0  0  0  0  0
   -1.0008    2.4198    1.4081 N   0  0  0  0  0  0  0  0  0  0  0  0
   -2.4725    3.5435    0.0650 N   0  0  0  0  0  0  0  0  0  0  0  0
   -0.2530    0.6133   -0.2249 C   0  0  2  0  0  0  0  0  0  0  0  0
   -0.6735   -0.6338    0.6140 C   0  0  1  0  0  0  0  0  0  0  0  0
    1.2512    0.8226   -0.2120 C   0  0  0  0  0  0  0  0  0  0  0  0
    2.0743   -0.2068    0.0271 C   0  0  0  0  0  0  0  0  0  0  0  0
   -1.0414    1.8419    0.2301 C   0  0  0  0  0  0  0  0  0  0  0  0
    1.4802   -1.5496    0.2508 C   0  0  0  0  0  0  0  0  0  0  0  0
   -2.1046   -1.0568    0.3115 C   0  0  0  0  0  0  0  0  0  0  0  0
    3.5064   -0.0283   -0.0616 C   0  0  0  0  0  0  0  0  0  0  0  0
    2.4608   -2.6760    0.2392 C   0  0  0  0  0  0  0  0  0  0  0  0
    4.0657    1.3467   -0.2692 C   0  0  0  0  0  0  0  0  0  0  0  0
    4.3196   -1.0935    0.0049 C   0  0  0  0  0  0  0  0  0  0  0  0
   -3.1602   -0.5245    1.0517 C   0  0  0  0  0  0  0  0  0  0  0  0
   -2.3601   -1.9765   -0.7058 C   0  0  0  0  0  0  0  0  0  0  0  0
    3.7725   -2.4236    0.1369 C   0  0  0  0  0  0  0  0  0  0  0  0
   -2.2677    2.2154   -1.9428 C   0  0  0  0  0  0  0  0  0  0  0  0
   -1.8865    3.4486    1.2603 C   0  0  0  0  0  0  0  0  0  0  0  0
   -4.4712   -0.9118    0.7752 C   0  0  0  0  0  0  0  0  0  0  0  0
   -3.6712   -2.3640   -0.9824 C   0  0  0  0  0  0  0  0  0  0  0  0
   -4.7267   -1.8317   -0.2420 C   0  0  0  0  0  0  0  0  0  0  0  0
   -0.5019    0.4081   -1.2756 H   0  0  0  0  0  0  0  0  0  0  0  0
   -0.6324   -0.3767    1.6832 H   0  0  0  0  0  0  0  0  0  0  0  0
    1.1584    2.8185   -0.7714 H   0  0  0  0  0  0  0  0  0  0  0  0
    2.0851   -3.6873    0.3433 H   0  0  0  0  0  0  0  0  0  0  0  0
    3.3739    3.3100   -0.6467 H   0  0  0  0  0  0  0  0  0  0  0  0
    5.3983   -1.0086   -0.0692 H   0  0  0  0  0  0  0  0  0  0  0  0
   -2.9787    0.1855    1.8538 H   0  0  0  0  0  0  0  0  0  0  0  0
   -1.5566   -2.3941   -1.3061 H   0  0  0  0  0  0  0  0  0  0  0  0
   -2.7107    1.2178   -1.9858 H   0  0  0  0  0  0  0  0  0  0  0  0
   -2.9923    2.9541   -2.2955 H   0  0  0  0  0  0  0  0  0  0  0  0
   -1.3633    2.2685   -2.5537 H   0  0  0  0  0  0  0  0  0  0  0  0
   -2.1120    4.1510    2.0487 H   0  0  0  0  0  0  0  0  0  0  0  0
   -5.2931   -0.4989    1.3524 H   0  0  0  0  0  0  0  0  0  0  0  0
   -3.8711   -3.0774   -1.7765 H   0  0  0  0  0  0  0  0  0  0  0  0
  1 23  1  0  0  0  0
  2 28  1  0  0  0  0
  3 19  2  0  0  0  0
  4 11  1  0  0  0  0
  4 15  2  0  0  0  0
  5  7  1  0  0  0  0
  5 12  1  0  0  0  0
  5 31  1  0  0  0  0
  6  9  1  0  0  0  0
  6 14  1  0  0  0  0
  6 24  1  0  0  0  0
  7 19  1  0  0  0  0
  7 33  1  0  0  0  0
  8 14  2  0  0  0  0
  8 25  1  0  0  0  0
  9 25  2  0  0  0  0
 10 11  1  0  0  0  0
 10 12  1  0  0  0  0
 10 14  1  0  0  0  0
 10 29  1  0  0  0  0
 11 16  1  0  0  0  0
 11 30  1  0  0  0  0
 12 13  2  0  0  0  0
 13 15  1  0  0  0  0
 13 17  1  0  0  0  0
 15 18  1  0  0  0  0
 16 21  2  0  0  0  0
 16 22  1  0  0  0  0
 17 19  1  0  0  0  0
 17 20  2  0  0  0  0
 18 23  2  0  0  0  0
 18 32  1  0  0  0  0
 20 23  1  0  0  0  0
 20 34  1  0  0  0  0
 21 26  1  0  0  0  0
 21 35  1  0  0  0  0
 22 27  2  0  0  0  0
 22 36  1  0  0  0  0
 24 37  1  0  0  0  0
 24 38  1  0  0  0  0
 24 39  1  0  0  0  0
 25 40  1  0  0  0  0
 26 28  2  0  0  0  0
 26 41  1  0  0  0  0
 27 28  1  0  0  0  0
 27 42  1  0  0  0  0
M  END
> <PUBCHEM_COMPOUND_CID>
44819241

> <PUBCHEM_CONFORMER_RMSD>
0.6

> <PUBCHEM_CONFORMER_DIVERSEORDER>
2
1
4
3
5

> <PUBCHEM_MMFF94_PARTIAL_CHARGES>
37
1 -0.15
10 0.32
11 0.39
12 -0.04
13 0.01
14 0.01
15 0.42
16 -0.14
17 0.01
18 -0.14
19 0.62
2 -0.19
20 -0.15
21 -0.15
22 -0.15
23 0.15
24 0.26
25 0.37
26 -0.15
27 -0.15
28 0.19
3 -0.57
31 0.4
32 0.15
33 0.37
34 0.15
35 0.15
36 0.15
4 -0.7
40 0.15
41 0.15
42 0.15
5 -0.52
6 0.31
7 -0.41
8 -0.57
9 -0.71

> <PUBCHEM_EFFECTIVE_ROTOR_COUNT>
2.8

> <PUBCHEM_PHARMACOPHORE_FEATURES>
11
1 3 acceptor
1 4 acceptor
1 5 donor
1 7 donor
3 6 8 14 cation
3 8 9 25 cation
5 6 8 9 14 25 rings
6 13 15 17 18 20 23 rings
6 16 21 22 26 27 28 rings
6 4 10 11 12 13 15 rings
6 5 7 12 13 17 19 rings

> <PUBCHEM_HEAVY_ATOM_COUNT>
28

> <PUBCHEM_ATOM_DEF_STEREO_COUNT>
2

> <PUBCHEM_ATOM_UDEF_STEREO_COUNT>
0

> <PUBCHEM_BOND_DEF_STEREO_COUNT>
0

> <PUBCHEM_BOND_UDEF_STEREO_COUNT>
0

> <PUBCHEM_ISOTOPIC_ATOM_COUNT>
0

> <PUBCHEM_COMPONENT_COUNT>
1

> <PUBCHEM_CACTVS_TAUTO_COUNT>
6

> <PUBCHEM_CONFORMER_ID>
02ABE32900000002

> <PUBCHEM_MMFF94_ENERGY>
71.4246

> <PUBCHEM_FEATURE_SELFOVERLAP>
60.168

> <PUBCHEM_SHAPE_FINGERPRINT>
10050765 1 18339080381213895202
10090160 65 18188207740317812562
1100329 8 18049162164160681176
11578080 2 17845916490452084281
12107183 9 18053674576850206699
12107698 1 18337671919308737266
12236239 1 18130513028282963787
12422481 6 18049752662387981977
12553582 1 18269545203798818271
12643181 29 17620761583657534318
12788726 201 18408598184252364747
13004483 165 18341324548570404875
13140716 1 17976825616544890514
13540713 5 18263936457994582552
13583140 156 17316213427749712337
13911987 19 17828780764920820620
140371 6 17969798547036541028
14178342 30 18266445517680411730
14347332 77 18411984633254102654
14790565 3 17832996313760928052
15439362 3 17546724215854183833
17492 89 18411136892493582658
18603816 31 16551682238593513910
20691752 17 17241055297469504994
21049683 271 18046911756201164959
21285901 2 17895743119254817399
21478907 32 18411135818803804611
21641784 216 18114757008865031797
23558518 356 18334869268136962296
23559900 14 18267574728832933456
23566358 2 18409164394386572412
23598288 3 18059006190210817061
23622692 118 18411135793076491138
25147074 1 18261119526426430506
266924 87 18408037433343537964
283562 15 18409168843735489512
335352 9 17904203625128496006
350125 39 18337961095171709624
460360 51 17822564994092876402
46194498 28 17460304693506790511
463206 1 18195525032807917942
469060 322 18336836393302955816
5104073 3 18266170627173714658
59755656 215 18337394945683917790
70251023 43 18409165498167560347
7164475 11 18411418388896903466
9709674 26 18333739004838895578

> <PUBCHEM_SHAPE_MULTIPOLES>
525.92
9.86
4.35
1.05
0.89
1.66
-0.12
-5.85
-0.86
-0.85
0.05
-0.95
0.53
-0.97

> <PUBCHEM_SHAPE_SELFOVERLAP>
1182.746

> <PUBCHEM_SHAPE_VOLUME>
278.7

> <PUBCHEM_COORDINATE_TYPE>
2
5
10

$$$$
