6323266
  -OEChem-01232513023D

 27 28  0     0  0  0  0  0  0999 V2000
    0.8628    2.7640   -0.4978 Cl  0  0  0  0  0  0  0  0  0  0  0  0
    3.3047    1.7452    0.8019 O   0  0  0  0  0  0  0  0  0  0  0  0
    2.4608   -2.7506    0.2752 O   0  0  0  0  0  0  0  0  0  0  0  0
   -1.8400    0.2197   -0.4492 N   0  0  0  0  0  0  0  0  0  0  0  0
    0.9406   -1.2214   -0.5193 N   0  0  0  0  0  0  0  0  0  0  0  0
   -2.3162   -2.1377   -0.1448 N   0  0  0  0  0  0  0  0  0  0  0  0
    2.8928   -0.5044    0.5457 N   0  0  0  0  0  0  0  0  0  0  0  0
   -2.4846    1.4697   -0.0853 C   0  0  0  0  0  0  0  0  0  0  0  0
   -3.3399    1.0554    1.1136 C   0  0  0  0  0  0  0  0  0  0  0  0
   -3.7005   -0.4086    0.8562 C   0  0  0  0  0  0  0  0  0  0  0  0
   -2.5237   -0.8770    0.0307 C   0  0  0  0  0  0  0  0  0  0  0  0
   -0.7753    0.2003   -1.4213 C   0  0  0  0  0  0  0  0  0  0  0  0
    0.5299    0.0797   -0.7198 C   0  0  0  0  0  0  0  0  0  0  0  0
    1.2875    1.1052   -0.2948 C   0  0  0  0  0  0  0  0  0  0  0  0
    2.5808    0.8389    0.3978 C   0  0  0  0  0  0  0  0  0  0  0  0
    2.1202   -1.5784    0.1111 C   0  0  0  0  0  0  0  0  0  0  0  0
   -3.1142    1.8225   -0.9095 H   0  0  0  0  0  0  0  0  0  0  0  0
   -1.7851    2.2574    0.1972 H   0  0  0  0  0  0  0  0  0  0  0  0
   -4.2213    1.6906    1.2397 H   0  0  0  0  0  0  0  0  0  0  0  0
   -2.7419    1.1251    2.0312 H   0  0  0  0  0  0  0  0  0  0  0  0
   -4.6121   -0.4992    0.2571 H   0  0  0  0  0  0  0  0  0  0  0  0
   -3.8041   -0.9801    1.7818 H   0  0  0  0  0  0  0  0  0  0  0  0
   -0.9208   -0.6233   -2.1325 H   0  0  0  0  0  0  0  0  0  0  0  0
   -0.8114    1.1045   -2.0411 H   0  0  0  0  0  0  0  0  0  0  0  0
    0.3369   -1.9676   -0.8529 H   0  0  0  0  0  0  0  0  0  0  0  0
   -3.0263   -2.6907    0.3469 H   0  0  0  0  0  0  0  0  0  0  0  0
    3.7671   -0.7262    1.0137 H   0  0  0  0  0  0  0  0  0  0  0  0
  1 14  1  0  0  0  0
  2 15  2  0  0  0  0
  3 16  2  0  0  0  0
  4  8  1  0  0  0  0
  4 11  1  0  0  0  0
  4 12  1  0  0  0  0
  5 13  1  0  0  0  0
  5 16  1  0  0  0  0
  5 25  1  0  0  0  0
  6 11  2  0  0  0  0
  6 26  1  0  0  0  0
  7 15  1  0  0  0  0
  7 16  1  0  0  0  0
  7 27  1  0  0  0  0
  8  9  1  0  0  0  0
  8 17  1  0  0  0  0
  8 18  1  0  0  0  0
  9 10  1  0  0  0  0
  9 19  1  0  0  0  0
  9 20  1  0  0  0  0
 10 11  1  0  0  0  0
 10 21  1  0  0  0  0
 10 22  1  0  0  0  0
 12 13  1  0  0  0  0
 12 23  1  0  0  0  0
 12 24  1  0  0  0  0
 13 14  2  0  0  0  0
 14 15  1  0  0  0  0
M  END
> <PUBCHEM_COMPOUND_CID>
6323266

> <PUBCHEM_CONFORMER_RMSD>
0.6

> <PUBCHEM_CONFORMER_DIVERSEORDER>
1
4
10
19
14
6
17
16
3
8
18
7
9
11
2
5
13
15
12

> <PUBCHEM_MMFF94_PARTIAL_CHARGES>
18
1 -0.14
10 0.06
11 0.44
12 0.51
13 -0.03
14 0.15
15 0.62
16 0.69
2 -0.57
25 0.37
26 0.4
27 0.37
3 -0.57
4 -0.79
5 -0.54
6 -0.85
7 -0.49
8 0.37

> <PUBCHEM_EFFECTIVE_ROTOR_COUNT>
2.8

> <PUBCHEM_PHARMACOPHORE_FEATURES>
8
1 2 acceptor
1 3 acceptor
1 5 donor
1 6 donor
1 7 donor
3 4 6 11 cation
5 4 8 9 10 11 rings
6 5 7 13 14 15 16 rings

> <PUBCHEM_HEAVY_ATOM_COUNT>
16

> <PUBCHEM_ATOM_DEF_STEREO_COUNT>
0

> <PUBCHEM_ATOM_UDEF_STEREO_COUNT>
0

> <PUBCHEM_BOND_DEF_STEREO_COUNT>
0

> <PUBCHEM_BOND_UDEF_STEREO_COUNT>
0

> <PUBCHEM_ISOTOPIC_ATOM_COUNT>
0

> <PUBCHEM_COMPONENT_COUNT>
1

> <PUBCHEM_CACTVS_TAUTO_COUNT>
12

> <PUBCHEM_CONFORMER_ID>
00607C4200000001

> <PUBCHEM_MMFF94_ENERGY>
34.5929

> <PUBCHEM_FEATURE_SELFOVERLAP>
40.639

> <PUBCHEM_SHAPE_FINGERPRINT>
10980938 120 18410012152158669100
1100329 8 16248291263219534965
11471102 22 18409168788016770680
12251169 10 18410860996731493925
12382932 28 18410851049265476569
12507560 14 18268993086063848565
12696612 119 18410298037882313061
13296908 3 17749107742805626407
13764800 53 16773251668446106235
14144814 61 18410857655178287913
14178342 30 18338790216806253560
15375462 189 17968944050487565882
15501101 241 18260267434504830884
15775835 57 17703512198155883321
16945 1 18335702792550750061
17804303 29 18193287286337909847
201361 129 18343303690911843920
20361792 2 15864076485527186831
20559304 39 18335713779124812693
21501502 16 18412262856708351039
22445834 79 18409735092519017567
23388829 49 18125428972035152511
2748010 2 18263915545213509708
57426455 70 18048047272175916187
7097593 13 18410579482999734017
7364860 26 18343308063035479430

> <PUBCHEM_SHAPE_MULTIPOLES>
299.48
5.92
2.6
1.01
1.98
0.17
-0.08
0.37
2.34
-1.43
0.01
0.25
-0.18
-0.11

> <PUBCHEM_SHAPE_SELFOVERLAP>
621.308

> <PUBCHEM_SHAPE_VOLUME>
172.2

> <PUBCHEM_COORDINATE_TYPE>
2
5
10

$$$$
